
     RDKit          3D

117119  0  0  0  0  0  0  0  0999 V2000
  -10.7131    3.2243   -1.1503 C   0  0  0  0  0  0  0  0  0  0  0  0
   -9.5656    3.2429   -0.1951 C   0  0  0  0  0  0  0  0  0  0  0  0
   -9.4086    4.2239    0.5792 O   0  0  0  0  0  0  0  0  0  0  0  0
   -8.6437    2.1452   -0.1739 N   0  0  0  0  0  0  0  0  0  0  0  0
   -7.4814    2.1018    0.7203 C   0  0  2  0  0  0  0  0  0  0  0  0
   -6.3333    2.9157    0.0983 C   0  0  0  0  0  0  0  0  0  0  0  0
   -5.0131    3.2492    1.3243 S   0  0  0  0  0  0  0  0  0  0  0  0
   -3.9057    4.1473    0.1725 C   0  0  0  0  0  0  0  0  0  0  0  0
   -2.5659    3.4660    0.0978 C   0  0  0  0  0  0  0  0  0  0  0  0
   -1.3955    4.1493    0.4712 C   0  0  0  0  0  0  0  0  0  0  0  0
   -0.1401    3.5289    0.3550 C   0  0  0  0  0  0  0  0  0  0  0  0
   -0.0686    2.2186   -0.1487 C   0  0  0  0  0  0  0  0  0  0  0  0
   -1.2327    1.5070   -0.4610 C   0  0  0  0  0  0  0  0  0  0  0  0
   -2.4756    2.1484   -0.3794 C   0  0  0  0  0  0  0  0  0  0  0  0
   -1.1337    0.0513   -0.8095 C   0  0  0  0  0  0  0  0  0  0  0  0
   -0.5547   -0.8546    0.6754 S   0  0  0  0  0  0  0  0  0  0  0  0
    0.3800   -2.1644   -0.1951 C   0  0  0  0  0  0  0  0  0  0  0  0
   -0.5591   -3.3015   -0.6275 C   0  0  2  0  0  0  0  0  0  0  0  0
   -1.1165   -3.9576    0.5604 N   0  0  0  0  0  0  0  0  0  0  0  0
   -2.5023   -4.2888    0.7378 C   0  0  0  0  0  0  0  0  0  0  0  0
   -2.7909   -5.3254    1.3950 O   0  0  0  0  0  0  0  0  0  0  0  0
   -3.6205   -3.4567    0.1444 C   0  0  1  0  0  0  0  0  0  0  0  0
   -4.1152   -4.1307   -1.1408 C   0  0  0  0  0  0  0  0  0  0  0  0
   -4.7266   -3.3132    1.1106 N   0  0  0  0  0  0  0  0  0  0  0  0
   -5.8222   -2.3824    1.0117 C   0  0  0  0  0  0  0  0  0  0  0  0
   -6.7403   -2.4525    1.8730 O   0  0  0  0  0  0  0  0  0  0  0  0
   -5.9360   -1.3458   -0.0839 C   0  0  1  0  0  0  0  0  0  0  0  0
   -7.1556   -1.6143   -0.9741 C   0  0  0  0  0  0  0  0  0  0  0  0
   -5.9657    0.0127    0.4727 N   0  0  0  0  0  0  0  0  0  0  0  0
   -7.1408    0.6508    1.0074 C   0  0  0  0  0  0  0  0  0  0  0  0
   -7.9523   -0.0222    1.6964 O   0  0  0  0  0  0  0  0  0  0  0  0
    0.1387   -4.3354   -1.4721 C   0  0  0  0  0  0  0  0  0  0  0  0
   -0.5546   -5.2147   -2.0570 O   0  0  0  0  0  0  0  0  0  0  0  0
    1.5584   -4.3128   -1.6804 N   0  0  0  0  0  0  0  0  0  0  0  0
    2.4809   -5.2557   -1.0391 C   0  0  2  0  0  0  0  0  0  0  0  0
    1.9571   -6.7019   -1.1116 C   0  0  0  0  0  0  0  0  0  0  0  0
    2.7669   -4.8251    0.3842 C   0  0  0  0  0  0  0  0  0  0  0  0
    2.0755   -5.3019    1.3284 O   0  0  0  0  0  0  0  0  0  0  0  0
    3.7939   -3.8678    0.7066 N   0  0  0  0  0  0  0  0  0  0  0  0
    4.5881   -3.1220   -0.2769 C   0  0  2  0  0  0  0  0  0  0  0  0
    5.8497   -3.9268   -0.6175 C   0  0  0  0  0  0  0  0  0  0  0  0
    4.9133   -1.7473    0.2746 C   0  0  0  0  0  0  0  0  0  0  0  0
    4.0054   -1.0831    0.8468 O   0  0  0  0  0  0  0  0  0  0  0  0
    6.2236   -1.1764    0.1324 N   0  0  0  0  0  0  0  0  0  0  0  0
    6.9598   -0.5617    1.2412 C   0  0  2  0  0  0  0  0  0  0  0  0
    7.1082   -1.5449    2.4083 C   0  0  0  0  0  0  0  0  0  0  0  0
    6.3333    0.7472    1.6643 C   0  0  0  0  0  0  0  0  0  0  0  0
    5.5328    0.7743    2.6434 O   0  0  0  0  0  0  0  0  0  0  0  0
    6.6849    1.9817    1.0180 N   0  0  0  0  0  0  0  0  0  0  0  0
    6.8991    2.0813   -0.4283 C   0  0  2  0  0  0  0  0  0  0  0  0
    7.9254    3.1715   -0.7526 C   0  0  0  0  0  0  0  0  0  0  0  0
    5.5916    2.3073   -1.1466 C   0  0  0  0  0  0  0  0  0  0  0  0
    5.4571    1.8471   -2.3108 O   0  0  0  0  0  0  0  0  0  0  0  0
    4.4636    2.9331   -0.5160 N   0  0  0  0  0  0  0  0  0  0  0  0
    4.5143    4.2846    0.0665 C   0  0  1  0  0  0  0  0  0  0  0  0
    4.0325    5.3160   -0.9259 C   0  0  0  0  0  0  0  0  0  0  0  0
    4.2168    6.7079   -0.6608 N   0  0  0  0  0  0  0  0  0  0  0  0
    3.4668    4.9605   -1.9963 O   0  0  0  0  0  0  0  0  0  0  0  0
    3.7614    4.3696    1.4206 C   0  0  0  0  0  0  0  0  0  0  0  0
    2.3094    3.2626    1.5911 S   0  0  0  0  0  0  0  0  0  0  0  0
    1.1205    4.2976    0.6593 C   0  0  0  0  0  0  0  0  0  0  0  0
  -10.3334    3.1323   -2.1918 H   0  0  0  0  0  0  0  0  0  0  0  0
  -11.3087    4.1582   -1.0655 H   0  0  0  0  0  0  0  0  0  0  0  0
  -11.3751    2.3599   -0.9186 H   0  0  0  0  0  0  0  0  0  0  0  0
   -8.8086    1.3474   -0.8336 H   0  0  0  0  0  0  0  0  0  0  0  0
   -7.7547    2.5676    1.6931 H   0  0  0  0  0  0  0  0  0  0  0  0
   -6.7292    3.8963   -0.2404 H   0  0  0  0  0  0  0  0  0  0  0  0
   -5.9242    2.3931   -0.7931 H   0  0  0  0  0  0  0  0  0  0  0  0
   -3.8021    5.1845    0.5545 H   0  0  0  0  0  0  0  0  0  0  0  0
   -4.3272    4.2183   -0.8513 H   0  0  0  0  0  0  0  0  0  0  0  0
   -1.4589    5.1723    0.8251 H   0  0  0  0  0  0  0  0  0  0  0  0
    0.8914    1.7341   -0.2644 H   0  0  0  0  0  0  0  0  0  0  0  0
   -3.3722    1.6218   -0.6793 H   0  0  0  0  0  0  0  0  0  0  0  0
   -0.4366   -0.0644   -1.6670 H   0  0  0  0  0  0  0  0  0  0  0  0
   -2.1205   -0.3607   -1.1123 H   0  0  0  0  0  0  0  0  0  0  0  0
    1.1414   -2.5540    0.5130 H   0  0  0  0  0  0  0  0  0  0  0  0
    0.9263   -1.7386   -1.0640 H   0  0  0  0  0  0  0  0  0  0  0  0
   -1.3582   -2.8602   -1.2569 H   0  0  0  0  0  0  0  0  0  0  0  0
   -0.4388   -4.3842    1.2329 H   0  0  0  0  0  0  0  0  0  0  0  0
   -3.2176   -2.4486   -0.0779 H   0  0  0  0  0  0  0  0  0  0  0  0
   -3.2648   -4.3231   -1.8282 H   0  0  0  0  0  0  0  0  0  0  0  0
   -4.8379   -3.4886   -1.6765 H   0  0  0  0  0  0  0  0  0  0  0  0
   -4.6092   -5.0954   -0.9042 H   0  0  0  0  0  0  0  0  0  0  0  0
   -4.7434   -3.9369    1.9498 H   0  0  0  0  0  0  0  0  0  0  0  0
   -5.0531   -1.3994   -0.7490 H   0  0  0  0  0  0  0  0  0  0  0  0
   -8.0982   -1.5964   -0.3878 H   0  0  0  0  0  0  0  0  0  0  0  0
   -7.0666   -2.6055   -1.4594 H   0  0  0  0  0  0  0  0  0  0  0  0
   -7.2182   -0.8378   -1.7694 H   0  0  0  0  0  0  0  0  0  0  0  0
   -5.0857    0.5660    0.3951 H   0  0  0  0  0  0  0  0  0  0  0  0
    1.9216   -3.7044   -2.4488 H   0  0  0  0  0  0  0  0  0  0  0  0
    3.4340   -5.2529   -1.6105 H   0  0  0  0  0  0  0  0  0  0  0  0
    1.0225   -6.8171   -0.5186 H   0  0  0  0  0  0  0  0  0  0  0  0
    1.7487   -6.9778   -2.1689 H   0  0  0  0  0  0  0  0  0  0  0  0
    2.7240   -7.3983   -0.7074 H   0  0  0  0  0  0  0  0  0  0  0  0
    4.0197   -3.7358    1.7218 H   0  0  0  0  0  0  0  0  0  0  0  0
    3.9898   -2.9679   -1.2024 H   0  0  0  0  0  0  0  0  0  0  0  0
    5.5911   -4.9744   -0.8748 H   0  0  0  0  0  0  0  0  0  0  0  0
    6.5451   -3.9502    0.2490 H   0  0  0  0  0  0  0  0  0  0  0  0
    6.3659   -3.4827   -1.4931 H   0  0  0  0  0  0  0  0  0  0  0  0
    6.7160   -1.2827   -0.7835 H   0  0  0  0  0  0  0  0  0  0  0  0
    7.9920   -0.3371    0.8958 H   0  0  0  0  0  0  0  0  0  0  0  0
    6.1117   -1.8368    2.8118 H   0  0  0  0  0  0  0  0  0  0  0  0
    7.7087   -1.0894    3.2224 H   0  0  0  0  0  0  0  0  0  0  0  0
    7.6278   -2.4614    2.0579 H   0  0  0  0  0  0  0  0  0  0  0  0
    6.5340    2.8599    1.5613 H   0  0  0  0  0  0  0  0  0  0  0  0
    7.3334    1.1324   -0.8073 H   0  0  0  0  0  0  0  0  0  0  0  0
    8.9037    2.9042   -0.2937 H   0  0  0  0  0  0  0  0  0  0  0  0
    8.0666    3.2481   -1.8542 H   0  0  0  0  0  0  0  0  0  0  0  0
    7.6211    4.1611   -0.3575 H   0  0  0  0  0  0  0  0  0  0  0  0
    3.5248    2.5705   -0.7997 H   0  0  0  0  0  0  0  0  0  0  0  0
    5.5650    4.5521    0.2805 H   0  0  0  0  0  0  0  0  0  0  0  0
    3.8420    7.4247   -1.3229 H   0  0  0  0  0  0  0  0  0  0  0  0
    4.7168    7.0226    0.1993 H   0  0  0  0  0  0  0  0  0  0  0  0
    4.4667    4.0689    2.2237 H   0  0  0  0  0  0  0  0  0  0  0  0
    3.4602    5.4138    1.6500 H   0  0  0  0  0  0  0  0  0  0  0  0
    1.5561    4.6115   -0.3069 H   0  0  0  0  0  0  0  0  0  0  0  0
    0.8960    5.2029    1.2627 H   0  0  0  0  0  0  0  0  0  0  0  0
  1  2  1  0
  2  3  2  0
  2  4  1  0
  4  5  1  0
  5  6  1  0
  6  7  1  0
  7  8  1  0
  8  9  1  0
  9 10  2  0
 10 11  1  0
 11 12  2  0
 12 13  1  0
 13 14  2  0
 13 15  1  0
 15 16  1  0
 16 17  1  0
 17 18  1  0
 18 19  1  0
 19 20  1  0
 20 21  2  0
 20 22  1  0
 22 23  1  0
 22 24  1  0
 24 25  1  0
 25 26  2  0
 25 27  1  0
 27 28  1  0
 27 29  1  0
 29 30  1  0
 30 31  2  0
 18 32  1  0
 32 33  2  0
 32 34  1  0
 34 35  1  0
 35 36  1  0
 35 37  1  0
 37 38  2  0
 37 39  1  0
 39 40  1  0
 40 41  1  0
 40 42  1  0
 42 43  2  0
 42 44  1  0
 44 45  1  0
 45 46  1  0
 45 47  1  0
 47 48  2  0
 47 49  1  0
 49 50  1  0
 50 51  1  0
 50 52  1  0
 52 53  2  0
 52 54  1  0
 54 55  1  0
 55 56  1  0
 56 57  1  0
 56 58  2  0
 55 59  1  0
 59 60  1  0
 60 61  1  0
 30  5  1  0
 14  9  1  0
 61 11  1  0
  1 62  1  0
  1 63  1  0
  1 64  1  0
  4 65  1  0
  5 66  1  1
  6 67  1  0
  6 68  1  0
  8 69  1  0
  8 70  1  0
 10 71  1  0
 12 72  1  0
 14 73  1  0
 15 74  1  0
 15 75  1  0
 17 76  1  0
 17 77  1  0
 18 78  1  6
 19 79  1  0
 22 80  1  6
 23 81  1  0
 23 82  1  0
 23 83  1  0
 24 84  1  0
 27 85  1  6
 28 86  1  0
 28 87  1  0
 28 88  1  0
 29 89  1  0
 34 90  1  0
 35 91  1  6
 36 92  1  0
 36 93  1  0
 36 94  1  0
 39 95  1  0
 40 96  1  6
 41 97  1  0
 41 98  1  0
 41 99  1  0
 44100  1  0
 45101  1  6
 46102  1  0
 46103  1  0
 46104  1  0
 49105  1  0
 50106  1  6
 51107  1  0
 51108  1  0
 51109  1  0
 54110  1  0
 55111  1  1
 57112  1  0
 57113  1  0
 59114  1  0
 59115  1  0
 61116  1  0
 61117  1  0
M  END
