
     RDKit          3D

127129  0  0  0  0  0  0  0  0999 V2000
   10.4895   -2.0468   -0.9225 C   0  0  0  0  0  0  0  0  0  0  0  0
    9.4264   -1.4800   -0.0773 C   0  0  0  0  0  0  0  0  0  0  0  0
    9.5175   -1.5149    1.1983 O   0  0  0  0  0  0  0  0  0  0  0  0
    8.2766   -0.8665   -0.7143 N   0  0  0  0  0  0  0  0  0  0  0  0
    6.9503   -1.2656   -0.3042 C   0  0  2  0  0  0  0  0  0  0  0  0
    6.7919   -2.7479   -0.6698 C   0  0  0  0  0  0  0  0  0  0  0  0
    6.2050   -3.7493    0.7938 S   0  0  0  0  0  0  0  0  0  0  0  0
    4.7776   -4.6777    0.0725 C   0  0  0  0  0  0  0  0  0  0  0  0
    3.3912   -4.0820    0.3300 C   0  0  0  0  0  0  0  0  0  0  0  0
    2.2673   -4.8925    0.0002 C   0  0  0  0  0  0  0  0  0  0  0  0
    0.9893   -4.2958   -0.0049 C   0  0  0  0  0  0  0  0  0  0  0  0
    0.8479   -2.9115   -0.0245 C   0  0  0  0  0  0  0  0  0  0  0  0
    1.8994   -2.0849    0.3419 C   0  0  0  0  0  0  0  0  0  0  0  0
    3.1686   -2.7248    0.6371 C   0  0  0  0  0  0  0  0  0  0  0  0
    1.8161   -0.5830    0.2013 C   0  0  0  0  0  0  0  0  0  0  0  0
    2.1910    0.1493    1.8997 S   0  0  0  0  0  0  0  0  0  0  0  0
    1.2972    1.8237    1.6949 C   0  0  0  0  0  0  0  0  0  0  0  0
    1.3934    2.6445    0.3704 C   0  0  2  0  0  0  0  0  0  0  0  0
    2.6875    2.5305   -0.3728 N   0  0  0  0  0  0  0  0  0  0  0  0
    3.7183    3.5039   -0.6186 C   0  0  0  0  0  0  0  0  0  0  0  0
    3.8430    3.9267   -1.8035 O   0  0  0  0  0  0  0  0  0  0  0  0
    4.6526    3.9722    0.5190 C   0  0  1  0  0  0  0  0  0  0  0  0
    4.6272    3.0834    1.7630 C   0  0  0  0  0  0  0  0  0  0  0  0
    5.9763    4.2502   -0.0088 N   0  0  0  0  0  0  0  0  0  0  0  0
    6.8397    3.4394   -0.8866 C   0  0  0  0  0  0  0  0  0  0  0  0
    7.7678    4.0088   -1.5074 O   0  0  0  0  0  0  0  0  0  0  0  0
    7.0486    1.9126   -0.6898 C   0  0  1  0  0  0  0  0  0  0  0  0
    7.4289    1.7400    0.8420 C   0  0  0  0  0  0  0  0  0  0  0  0
    5.9303    1.0659   -1.1125 N   0  0  0  0  0  0  0  0  0  0  0  0
    5.8293   -0.4255   -0.8889 C   0  0  0  0  0  0  0  0  0  0  0  0
    4.7622   -0.9642   -1.2442 O   0  0  0  0  0  0  0  0  0  0  0  0
    0.9804    4.0626    0.6250 C   0  0  0  0  0  0  0  0  0  0  0  0
    1.5944    4.7442    1.4352 O   0  0  0  0  0  0  0  0  0  0  0  0
   -0.1933    4.6177    0.0222 N   0  0  0  0  0  0  0  0  0  0  0  0
   -0.4156    4.5570   -1.4017 C   0  0  2  0  0  0  0  0  0  0  0  0
   -0.3464    6.0159   -1.9526 C   0  0  0  0  0  0  0  0  0  0  0  0
   -1.7934    3.9765   -1.6655 C   0  0  0  0  0  0  0  0  0  0  0  0
   -2.2600    4.0494   -2.8386 O   0  0  0  0  0  0  0  0  0  0  0  0
   -2.5382    3.2988   -0.6325 N   0  0  0  0  0  0  0  0  0  0  0  0
   -3.8690    3.6739   -0.1773 C   0  0  2  0  0  0  0  0  0  0  0  0
   -4.0366    5.2500   -0.2449 C   0  0  0  0  0  0  0  0  0  0  0  0
   -4.1317    3.2304    1.2762 C   0  0  0  0  0  0  0  0  0  0  0  0
   -3.4428    3.7621    2.1762 O   0  0  0  0  0  0  0  0  0  0  0  0
   -5.2349    2.3242    1.6311 N   0  0  0  0  0  0  0  0  0  0  0  0
   -5.8025    1.2926    0.7444 C   0  0  2  0  0  0  0  0  0  0  0  0
   -4.6175    0.6771    0.0005 C   0  0  0  0  0  0  0  0  0  0  0  0
   -6.8239    1.8933   -0.2036 C   0  0  0  0  0  0  0  0  0  0  0  0
   -7.2171    3.1002   -0.0492 O   0  0  0  0  0  0  0  0  0  0  0  0
   -7.4434    1.1527   -1.2897 N   0  0  0  0  0  0  0  0  0  0  0  0
   -7.6415   -0.3251   -1.4327 C   0  0  2  0  0  0  0  0  0  0  0  0
   -8.3035   -0.6163   -2.7449 C   0  0  0  0  0  0  0  0  0  0  0  0
   -8.6389   -0.9059   -0.4231 C   0  0  0  0  0  0  0  0  0  0  0  0
   -9.6264   -0.2486    0.0451 O   0  0  0  0  0  0  0  0  0  0  0  0
   -8.3934   -2.2166    0.1507 N   0  0  0  0  0  0  0  0  0  0  0  0
   -7.0179   -2.6519    0.7946 C   0  0  2  0  0  0  0  0  0  0  0  0
   -7.0229   -2.3925    2.4259 C   0  0  0  0  0  0  0  0  0  0  0  0
   -5.6401   -3.2440    0.0198 C   0  0  0  0  0  0  0  0  0  0  0  0
   -6.1613   -2.1240    0.1017 O   0  0  0  0  0  0  0  0  0  0  0  0
   -4.3554   -3.4339    0.5978 N   0  0  0  0  0  0  0  0  0  0  0  0
   -4.2058   -4.7862    1.3162 C   0  0  1  0  0  0  0  0  0  0  0  0
   -4.7588   -5.8869    0.3921 C   0  0  0  0  0  0  0  0  0  0  0  0
   -4.1693   -6.1107   -0.8397 N   0  0  0  0  0  0  0  0  0  0  0  0
   -5.6740   -6.6666    0.7688 O   0  0  0  0  0  0  0  0  0  0  0  0
   -2.7304   -5.0307    1.5827 C   0  0  0  0  0  0  0  0  0  0  0  0
   -1.8165   -4.4161    0.0302 S   0  0  0  0  0  0  0  0  0  0  0  0
   -0.1677   -5.1756    0.4352 C   0  0  0  0  0  0  0  0  0  0  0  0
   10.5024   -3.1981   -0.9200 H   0  0  0  0  0  0  0  0  0  0  0  0
   11.5152   -1.7284   -0.4481 H   0  0  0  0  0  0  0  0  0  0  0  0
   10.4992   -1.6448   -1.9992 H   0  0  0  0  0  0  0  0  0  0  0  0
    8.3697   -0.5542   -1.7862 H   0  0  0  0  0  0  0  0  0  0  0  0
    6.8806   -1.2383    0.8523 H   0  0  0  0  0  0  0  0  0  0  0  0
    7.7489   -3.1992   -1.0223 H   0  0  0  0  0  0  0  0  0  0  0  0
    6.0717   -2.8681   -1.5663 H   0  0  0  0  0  0  0  0  0  0  0  0
    4.8673   -4.8167   -1.0669 H   0  0  0  0  0  0  0  0  0  0  0  0
    4.7308   -5.6606    0.5327 H   0  0  0  0  0  0  0  0  0  0  0  0
    2.4012   -6.0034   -0.0741 H   0  0  0  0  0  0  0  0  0  0  0  0
   -0.0528   -2.4738   -0.3777 H   0  0  0  0  0  0  0  0  0  0  0  0
    3.9238   -2.1760    1.2004 H   0  0  0  0  0  0  0  0  0  0  0  0
    0.8887   -0.2326   -0.2158 H   0  0  0  0  0  0  0  0  0  0  0  0
    2.5917   -0.2657   -0.4752 H   0  0  0  0  0  0  0  0  0  0  0  0
    0.2033    1.7666    1.8949 H   0  0  0  0  0  0  0  0  0  0  0  0
    1.6988    2.4577    2.4838 H   0  0  0  0  0  0  0  0  0  0  0  0
    0.6008    2.1947   -0.3373 H   0  0  0  0  0  0  0  0  0  0  0  0
    2.6225    1.8615   -1.1807 H   0  0  0  0  0  0  0  0  0  0  0  0
    4.2222    4.9102    0.8583 H   0  0  0  0  0  0  0  0  0  0  0  0
    5.5947    3.2778    2.3302 H   0  0  0  0  0  0  0  0  0  0  0  0
    3.7894    3.3701    2.4296 H   0  0  0  0  0  0  0  0  0  0  0  0
    4.5688    2.0247    1.4736 H   0  0  0  0  0  0  0  0  0  0  0  0
    6.2842    5.2228    0.1043 H   0  0  0  0  0  0  0  0  0  0  0  0
    7.9381    1.6427   -1.2978 H   0  0  0  0  0  0  0  0  0  0  0  0
    7.5706    2.7106    1.3462 H   0  0  0  0  0  0  0  0  0  0  0  0
    8.4246    1.2288    0.8702 H   0  0  0  0  0  0  0  0  0  0  0  0
    6.6417    1.1125    1.3772 H   0  0  0  0  0  0  0  0  0  0  0  0
    5.0940    1.4797   -1.6513 H   0  0  0  0  0  0  0  0  0  0  0  0
   -0.7859    5.2571    0.6437 H   0  0  0  0  0  0  0  0  0  0  0  0
    0.3500    3.9719   -1.9542 H   0  0  0  0  0  0  0  0  0  0  0  0
   -0.8597    6.7481   -1.2548 H   0  0  0  0  0  0  0  0  0  0  0  0
   -0.7599    6.1127   -2.9730 H   0  0  0  0  0  0  0  0  0  0  0  0
    0.7618    6.3548   -2.0180 H   0  0  0  0  0  0  0  0  0  0  0  0
   -2.1966    2.3425   -0.4644 H   0  0  0  0  0  0  0  0  0  0  0  0
   -4.6494    3.2742   -0.9206 H   0  0  0  0  0  0  0  0  0  0  0  0
   -5.0623    5.4470    0.1073 H   0  0  0  0  0  0  0  0  0  0  0  0
   -3.3125    5.7431    0.4177 H   0  0  0  0  0  0  0  0  0  0  0  0
   -3.9436    5.6033   -1.2870 H   0  0  0  0  0  0  0  0  0  0  0  0
   -5.8895    2.7065    2.3737 H   0  0  0  0  0  0  0  0  0  0  0  0
   -6.2760    0.5124    1.4259 H   0  0  0  0  0  0  0  0  0  0  0  0
   -3.5888    0.7541    0.6018 H   0  0  0  0  0  0  0  0  0  0  0  0
   -4.7603   -0.3238   -0.4494 H   0  0  0  0  0  0  0  0  0  0  0  0
   -4.5777    1.1222   -0.9827 H   0  0  0  0  0  0  0  0  0  0  0  0
   -7.9181    1.7726   -2.0036 H   0  0  0  0  0  0  0  0  0  0  0  0
   -6.6019   -0.8437   -1.6024 H   0  0  0  0  0  0  0  0  0  0  0  0
   -9.3264   -0.0939   -2.7609 H   0  0  0  0  0  0  0  0  0  0  0  0
   -8.5138   -1.7229   -2.8448 H   0  0  0  0  0  0  0  0  0  0  0  0
   -7.7152   -0.2486   -3.6077 H   0  0  0  0  0  0  0  0  0  0  0  0
   -9.2394   -2.5892    0.6505 H   0  0  0  0  0  0  0  0  0  0  0  0
   -7.3494   -3.7277    0.9175 H   0  0  0  0  0  0  0  0  0  0  0  0
   -6.1338   -1.8518    2.8086 H   0  0  0  0  0  0  0  0  0  0  0  0
   -7.9492   -1.7550    2.7186 H   0  0  0  0  0  0  0  0  0  0  0  0
   -7.0237   -3.3936    3.0256 H   0  0  0  0  0  0  0  0  0  0  0  0
   -3.8117   -2.5896    0.9281 H   0  0  0  0  0  0  0  0  0  0  0  0
   -4.8403   -4.8008    2.3108 H   0  0  0  0  0  0  0  0  0  0  0  0
   -3.2153   -6.6283   -0.7226 H   0  0  0  0  0  0  0  0  0  0  0  0
   -4.7086   -6.4406   -1.7009 H   0  0  0  0  0  0  0  0  0  0  0  0
   -2.6355   -6.1654    1.7051 H   0  0  0  0  0  0  0  0  0  0  0  0
   -2.4440   -4.5210    2.4423 H   0  0  0  0  0  0  0  0  0  0  0  0
   -0.0387   -6.2030    0.0934 H   0  0  0  0  0  0  0  0  0  0  0  0
   -0.0690   -5.2094    1.5525 H   0  0  0  0  0  0  0  0  0  0  0  0
  1  2  1  0
  2  3  2  0
  2  4  1  0
  4  5  1  0
  5  6  1  0
  6  7  1  0
  7  8  1  0
  8  9  1  0
  9 10  2  0
 10 11  1  0
 11 12  2  0
 12 13  1  0
 13 14  2  0
 13 15  1  0
 15 16  1  0
 16 17  1  0
 17 18  1  0
 18 19  1  0
 19 20  1  0
 20 21  2  0
 20 22  1  0
 22 23  1  0
 22 24  1  0
 24 25  1  0
 25 26  2  0
 25 27  1  0
 27 28  1  0
 27 29  1  0
 29 30  1  0
 30 31  2  0
 18 32  1  0
 32 33  2  0
 32 34  1  0
 34 35  1  0
 35 36  1  0
 35 37  1  0
 37 38  2  0
 37 39  1  0
 39 40  1  0
 40 41  1  0
 40 42  1  0
 42 43  2  0
 42 44  1  0
 44 45  1  0
 45 46  1  0
 45 47  1  0
 47 48  2  0
 47 49  1  0
 49 50  1  0
 50 51  1  0
 50 52  1  0
 52 53  2  0
 52 54  1  0
 54 55  1  0
 55 56  1  0
 55 57  1  0
 57 58  2  0
 57 59  1  0
 59 60  1  0
 60 61  1  0
 61 62  1  0
 61 63  2  0
 60 64  1  0
 64 65  1  0
 65 66  1  0
 30  5  1  0
 14  9  1  0
 66 11  1  0
  1 67  1  0
  1 68  1  0
  1 69  1  0
  4 70  1  0
  5 71  1  1
  6 72  1  0
  6 73  1  0
  8 74  1  0
  8 75  1  0
 10 76  1  0
 12 77  1  0
 14 78  1  0
 15 79  1  0
 15 80  1  0
 17 81  1  0
 17 82  1  0
 18 83  1  6
 19 84  1  0
 22 85  1  1
 23 86  1  0
 23 87  1  0
 23 88  1  0
 24 89  1  0
 27 90  1  6
 28 91  1  0
 28 92  1  0
 28 93  1  0
 29 94  1  0
 34 95  1  0
 35 96  1  6
 36 97  1  0
 36 98  1  0
 36 99  1  0
 39100  1  0
 40101  1  6
 41102  1  0
 41103  1  0
 41104  1  0
 44105  1  0
 45106  1  1
 46107  1  0
 46108  1  0
 46109  1  0
 49110  1  0
 50111  1  6
 51112  1  0
 51113  1  0
 51114  1  0
 54115  1  0
 55116  1  1
 56117  1  0
 56118  1  0
 56119  1  0
 59120  1  0
 60121  1  1
 62122  1  0
 62123  1  0
 64124  1  0
 64125  1  0
 66126  1  0
 66127  1  0
M  END
