
     RDKit          3D

127129  0  0  0  0  0  0  0  0999 V2000
    8.7585    4.2851   -1.3488 C   0  0  0  0  0  0  0  0  0  0  0  0
    8.3267    3.4550   -2.5078 C   0  0  0  0  0  0  0  0  0  0  0  0
    8.7587    3.7510   -3.6577 O   0  0  0  0  0  0  0  0  0  0  0  0
    7.3683    2.3825   -2.3945 N   0  0  0  0  0  0  0  0  0  0  0  0
    7.1927    1.4521   -1.2622 C   0  0  2  0  0  0  0  0  0  0  0  0
    6.7029    2.1397    0.0305 C   0  0  0  0  0  0  0  0  0  0  0  0
    5.1452    3.0726   -0.2246 S   0  0  0  0  0  0  0  0  0  0  0  0
    4.0502    1.6196   -0.4406 C   0  0  0  0  0  0  0  0  0  0  0  0
    2.7948    1.7778    0.3665 C   0  0  0  0  0  0  0  0  0  0  0  0
    1.9174    2.8426    0.1217 C   0  0  0  0  0  0  0  0  0  0  0  0
    0.7335    2.9649    0.8580 C   0  0  0  0  0  0  0  0  0  0  0  0
    0.3647    1.9525    1.7557 C   0  0  0  0  0  0  0  0  0  0  0  0
    1.2131    0.8541    1.9829 C   0  0  0  0  0  0  0  0  0  0  0  0
    2.4662    0.8273    1.3470 C   0  0  0  0  0  0  0  0  0  0  0  0
    0.7991   -0.2117    2.9708 C   0  0  0  0  0  0  0  0  0  0  0  0
    1.4189   -1.8945    2.5858 S   0  0  0  0  0  0  0  0  0  0  0  0
    0.6933   -2.0542    0.9051 C   0  0  0  0  0  0  0  0  0  0  0  0
    0.8214   -3.5026    0.3728 C   0  0  2  0  0  0  0  0  0  0  0  0
    2.0776   -3.7892   -0.3579 N   0  0  0  0  0  0  0  0  0  0  0  0
    3.3682   -3.1558   -0.2072 C   0  0  0  0  0  0  0  0  0  0  0  0
    3.5475   -2.2375    0.6386 O   0  0  0  0  0  0  0  0  0  0  0  0
    4.5123   -3.5563   -1.0978 C   0  0  1  0  0  0  0  0  0  0  0  0
    4.5177   -2.6635   -2.3507 C   0  0  0  0  0  0  0  0  0  0  0  0
    5.7738   -3.4917   -0.3440 N   0  0  0  0  0  0  0  0  0  0  0  0
    6.9036   -2.6914   -0.7152 C   0  0  0  0  0  0  0  0  0  0  0  0
    7.5913   -3.0161   -1.7211 O   0  0  0  0  0  0  0  0  0  0  0  0
    7.1913   -1.4035    0.0227 C   0  0  1  0  0  0  0  0  0  0  0  0
    7.4116   -1.6535    1.5142 C   0  0  0  0  0  0  0  0  0  0  0  0
    8.3757   -0.7355   -0.5386 N   0  0  0  0  0  0  0  0  0  0  0  0
    8.4353    0.6329   -0.9957 C   0  0  0  0  0  0  0  0  0  0  0  0
    9.5709    1.1527   -1.1634 O   0  0  0  0  0  0  0  0  0  0  0  0
   -0.3352   -3.7980   -0.5649 C   0  0  0  0  0  0  0  0  0  0  0  0
   -0.3932   -3.1562   -1.6529 O   0  0  0  0  0  0  0  0  0  0  0  0
   -1.3680   -4.7716   -0.3011 N   0  0  0  0  0  0  0  0  0  0  0  0
   -1.4642   -5.6066    0.8965 C   0  0  2  0  0  0  0  0  0  0  0  0
   -2.0805   -6.9797    0.5886 C   0  0  0  0  0  0  0  0  0  0  0  0
   -2.1633   -4.8692    2.0261 C   0  0  0  0  0  0  0  0  0  0  0  0
   -1.4463   -4.4686    2.9881 O   0  0  0  0  0  0  0  0  0  0  0  0
   -3.5895   -4.6411    2.1160 N   0  0  0  0  0  0  0  0  0  0  0  0
   -4.5168   -4.1784    1.0634 C   0  0  2  0  0  0  0  0  0  0  0  0
   -4.9611   -5.3494    0.1755 C   0  0  0  0  0  0  0  0  0  0  0  0
   -3.9836   -2.9810    0.2954 C   0  0  0  0  0  0  0  0  0  0  0  0
   -2.8989   -2.4577    0.6522 O   0  0  0  0  0  0  0  0  0  0  0  0
   -4.6721   -2.3885   -0.8215 N   0  0  0  0  0  0  0  0  0  0  0  0
   -6.1170   -2.4724   -1.0743 C   0  0  2  0  0  0  0  0  0  0  0  0
   -6.5063   -1.6498   -2.3159 C   0  0  0  0  0  0  0  0  0  0  0  0
   -6.9406   -2.0575    0.1255 C   0  0  0  0  0  0  0  0  0  0  0  0
   -7.7326   -2.9060    0.6138 O   0  0  0  0  0  0  0  0  0  0  0  0
   -6.9084   -0.7396    0.7123 N   0  0  0  0  0  0  0  0  0  0  0  0
   -5.8704    0.2754    0.5035 C   0  0  2  0  0  0  0  0  0  0  0  0
   -5.0688    0.4451    1.7962 C   0  0  0  0  0  0  0  0  0  0  0  0
   -6.5054    1.5621    0.0144 C   0  0  0  0  0  0  0  0  0  0  0  0
   -7.4245    1.4949   -0.8498 O   0  0  0  0  0  0  0  0  0  0  0  0
   -6.0376    2.8465    0.4497 N   0  0  0  0  0  0  0  0  0  0  0  0
   -6.1076    4.0416   -0.3957 C   0  0  2  0  0  0  0  0  0  0  0  0
   -5.4268    3.8002   -1.7475 C   0  0  0  0  0  0  0  0  0  0  0  0
   -5.4263    5.2115    0.2775 C   0  0  0  0  0  0  0  0  0  0  0  0
   -6.0089    6.3289    0.3004 O   0  0  0  0  0  0  0  0  0  0  0  0
   -4.1160    5.0625    0.8628 N   0  0  0  0  0  0  0  0  0  0  0  0
   -2.9669    5.9500    0.6244 C   0  0  2  0  0  0  0  0  0  0  0  0
   -3.3393    7.4107    0.5435 C   0  0  0  0  0  0  0  0  0  0  0  0
   -3.8698    7.9762   -0.6637 N   0  0  0  0  0  0  0  0  0  0  0  0
   -3.0530    8.1704    1.5056 O   0  0  0  0  0  0  0  0  0  0  0  0
   -2.1601    5.4866   -0.6064 C   0  0  0  0  0  0  0  0  0  0  0  0
   -1.5350    3.7684   -0.4296 S   0  0  0  0  0  0  0  0  0  0  0  0
   -0.1366    4.1691    0.6762 C   0  0  0  0  0  0  0  0  0  0  0  0
    7.8726    4.7064   -0.8394 H   0  0  0  0  0  0  0  0  0  0  0  0
    9.3615    3.6867   -0.6352 H   0  0  0  0  0  0  0  0  0  0  0  0
    9.3791    5.1363   -1.6918 H   0  0  0  0  0  0  0  0  0  0  0  0
    6.9205    2.0853   -3.2917 H   0  0  0  0  0  0  0  0  0  0  0  0
    6.4042    0.7431   -1.5837 H   0  0  0  0  0  0  0  0  0  0  0  0
    7.4692    2.8338    0.4294 H   0  0  0  0  0  0  0  0  0  0  0  0
    6.5353    1.3924    0.8335 H   0  0  0  0  0  0  0  0  0  0  0  0
    4.5574    0.6776   -0.1538 H   0  0  0  0  0  0  0  0  0  0  0  0
    3.7827    1.5314   -1.5149 H   0  0  0  0  0  0  0  0  0  0  0  0
    2.1671    3.5803   -0.6261 H   0  0  0  0  0  0  0  0  0  0  0  0
   -0.5793    2.0291    2.2853 H   0  0  0  0  0  0  0  0  0  0  0  0
    3.1694    0.0466    1.5940 H   0  0  0  0  0  0  0  0  0  0  0  0
   -0.3061   -0.2590    3.0510 H   0  0  0  0  0  0  0  0  0  0  0  0
    1.1915    0.0793    3.9712 H   0  0  0  0  0  0  0  0  0  0  0  0
   -0.3778   -1.7804    0.9932 H   0  0  0  0  0  0  0  0  0  0  0  0
    1.1566   -1.3407    0.1928 H   0  0  0  0  0  0  0  0  0  0  0  0
    0.7908   -4.1676    1.2478 H   0  0  0  0  0  0  0  0  0  0  0  0
    2.0650   -4.6568   -0.9473 H   0  0  0  0  0  0  0  0  0  0  0  0
    4.3619   -4.6030   -1.4297 H   0  0  0  0  0  0  0  0  0  0  0  0
    5.2769   -3.0231   -3.0718 H   0  0  0  0  0  0  0  0  0  0  0  0
    4.7347   -1.6079   -2.0809 H   0  0  0  0  0  0  0  0  0  0  0  0
    3.5256   -2.7029   -2.8507 H   0  0  0  0  0  0  0  0  0  0  0  0
    5.8418   -4.0422    0.5414 H   0  0  0  0  0  0  0  0  0  0  0  0
    6.2915   -0.7747   -0.0596 H   0  0  0  0  0  0  0  0  0  0  0  0
    6.5636   -2.2245    1.9538 H   0  0  0  0  0  0  0  0  0  0  0  0
    8.3657   -2.2008    1.6961 H   0  0  0  0  0  0  0  0  0  0  0  0
    7.4547   -0.6723    2.0475 H   0  0  0  0  0  0  0  0  0  0  0  0
    9.2816   -1.2524   -0.4749 H   0  0  0  0  0  0  0  0  0  0  0  0
   -2.1430   -4.8261   -1.0063 H   0  0  0  0  0  0  0  0  0  0  0  0
   -0.4436   -5.8610    1.2457 H   0  0  0  0  0  0  0  0  0  0  0  0
   -2.5334   -7.4294    1.4977 H   0  0  0  0  0  0  0  0  0  0  0  0
   -1.2867   -7.6668    0.2148 H   0  0  0  0  0  0  0  0  0  0  0  0
   -2.8378   -6.9187   -0.2127 H   0  0  0  0  0  0  0  0  0  0  0  0
   -3.9641   -4.5882    3.0910 H   0  0  0  0  0  0  0  0  0  0  0  0
   -5.4299   -3.8287    1.5845 H   0  0  0  0  0  0  0  0  0  0  0  0
   -4.8410   -6.3140    0.7079 H   0  0  0  0  0  0  0  0  0  0  0  0
   -4.4110   -5.3663   -0.7864 H   0  0  0  0  0  0  0  0  0  0  0  0
   -6.0478   -5.2740   -0.0504 H   0  0  0  0  0  0  0  0  0  0  0  0
   -4.0962   -1.7805   -1.4484 H   0  0  0  0  0  0  0  0  0  0  0  0
   -6.3669   -3.5171   -1.3374 H   0  0  0  0  0  0  0  0  0  0  0  0
   -5.9994   -2.0653   -3.2191 H   0  0  0  0  0  0  0  0  0  0  0  0
   -7.6069   -1.6990   -2.4843 H   0  0  0  0  0  0  0  0  0  0  0  0
   -6.2102   -0.5850   -2.2149 H   0  0  0  0  0  0  0  0  0  0  0  0
   -7.6457   -0.5217    1.4161 H   0  0  0  0  0  0  0  0  0  0  0  0
   -5.1582   -0.0341   -0.2782 H   0  0  0  0  0  0  0  0  0  0  0  0
   -4.2073    1.1324    1.6346 H   0  0  0  0  0  0  0  0  0  0  0  0
   -5.7136    0.8437    2.6075 H   0  0  0  0  0  0  0  0  0  0  0  0
   -4.6688   -0.5405    2.1238 H   0  0  0  0  0  0  0  0  0  0  0  0
   -5.7891    2.9569    1.4579 H   0  0  0  0  0  0  0  0  0  0  0  0
   -7.1757    4.2944   -0.5801 H   0  0  0  0  0  0  0  0  0  0  0  0
   -5.9862    3.0525   -2.3431 H   0  0  0  0  0  0  0  0  0  0  0  0
   -4.3931    3.4214   -1.5975 H   0  0  0  0  0  0  0  0  0  0  0  0
   -5.3879    4.7399   -2.3336 H   0  0  0  0  0  0  0  0  0  0  0  0
   -3.8672    4.1130    1.2407 H   0  0  0  0  0  0  0  0  0  0  0  0
   -2.3062    5.8517    1.5125 H   0  0  0  0  0  0  0  0  0  0  0  0
   -4.1536    7.3731   -1.4646 H   0  0  0  0  0  0  0  0  0  0  0  0
   -4.0672    8.9991   -0.7126 H   0  0  0  0  0  0  0  0  0  0  0  0
   -2.8086    5.5037   -1.5059 H   0  0  0  0  0  0  0  0  0  0  0  0
   -1.3092    6.1790   -0.7883 H   0  0  0  0  0  0  0  0  0  0  0  0
   -0.5256    4.4939    1.6637 H   0  0  0  0  0  0  0  0  0  0  0  0
    0.4514    5.0079    0.2507 H   0  0  0  0  0  0  0  0  0  0  0  0
  1  2  1  0
  2  3  2  0
  2  4  1  0
  4  5  1  0
  5  6  1  0
  6  7  1  0
  7  8  1  0
  8  9  1  0
  9 10  2  0
 10 11  1  0
 11 12  2  0
 12 13  1  0
 13 14  2  0
 13 15  1  0
 15 16  1  0
 16 17  1  0
 17 18  1  0
 18 19  1  0
 19 20  1  0
 20 21  2  0
 20 22  1  0
 22 23  1  0
 22 24  1  0
 24 25  1  0
 25 26  2  0
 25 27  1  0
 27 28  1  0
 27 29  1  0
 29 30  1  0
 30 31  2  0
 18 32  1  0
 32 33  2  0
 32 34  1  0
 34 35  1  0
 35 36  1  0
 35 37  1  0
 37 38  2  0
 37 39  1  0
 39 40  1  0
 40 41  1  0
 40 42  1  0
 42 43  2  0
 42 44  1  0
 44 45  1  0
 45 46  1  0
 45 47  1  0
 47 48  2  0
 47 49  1  0
 49 50  1  0
 50 51  1  0
 50 52  1  0
 52 53  2  0
 52 54  1  0
 54 55  1  0
 55 56  1  0
 55 57  1  0
 57 58  2  0
 57 59  1  0
 59 60  1  0
 60 61  1  0
 61 62  1  0
 61 63  2  0
 60 64  1  0
 64 65  1  0
 65 66  1  0
 30  5  1  0
 14  9  1  0
 66 11  1  0
  1 67  1  0
  1 68  1  0
  1 69  1  0
  4 70  1  0
  5 71  1  6
  6 72  1  0
  6 73  1  0
  8 74  1  0
  8 75  1  0
 10 76  1  0
 12 77  1  0
 14 78  1  0
 15 79  1  0
 15 80  1  0
 17 81  1  0
 17 82  1  0
 18 83  1  1
 19 84  1  0
 22 85  1  6
 23 86  1  0
 23 87  1  0
 23 88  1  0
 24 89  1  0
 27 90  1  1
 28 91  1  0
 28 92  1  0
 28 93  1  0
 29 94  1  0
 34 95  1  0
 35 96  1  1
 36 97  1  0
 36 98  1  0
 36 99  1  0
 39100  1  0
 40101  1  1
 41102  1  0
 41103  1  0
 41104  1  0
 44105  1  0
 45106  1  6
 46107  1  0
 46108  1  0
 46109  1  0
 49110  1  0
 50111  1  6
 51112  1  0
 51113  1  0
 51114  1  0
 54115  1  0
 55116  1  6
 56117  1  0
 56118  1  0
 56119  1  0
 59120  1  0
 60121  1  1
 62122  1  0
 62123  1  0
 64124  1  0
 64125  1  0
 66126  1  0
 66127  1  0
M  END
