
     RDKit          3D

117119  0  0  0  0  0  0  0  0999 V2000
   -9.4573   -2.5499   -0.3713 C   0  0  0  0  0  0  0  0  0  0  0  0
   -8.9331   -2.7550   -1.7661 C   0  0  0  0  0  0  0  0  0  0  0  0
   -9.7099   -3.2283   -2.6379 O   0  0  0  0  0  0  0  0  0  0  0  0
   -7.5751   -2.4589   -2.1401 N   0  0  0  0  0  0  0  0  0  0  0  0
   -6.6625   -1.5552   -1.4271 C   0  0  2  0  0  0  0  0  0  0  0  0
   -6.1975   -2.1553   -0.0811 C   0  0  0  0  0  0  0  0  0  0  0  0
   -5.7401   -3.9381   -0.1897 S   0  0  0  0  0  0  0  0  0  0  0  0
   -4.2746   -3.8235   -1.2769 C   0  0  0  0  0  0  0  0  0  0  0  0
   -3.0809   -3.2901   -0.5297 C   0  0  0  0  0  0  0  0  0  0  0  0
   -2.8642   -1.9091   -0.4451 C   0  0  0  0  0  0  0  0  0  0  0  0
   -1.8486   -1.3965    0.3711 C   0  0  0  0  0  0  0  0  0  0  0  0
   -0.9945   -2.2760    1.0487 C   0  0  0  0  0  0  0  0  0  0  0  0
   -1.1073   -3.6609    0.8613 C   0  0  0  0  0  0  0  0  0  0  0  0
   -2.1773   -4.1660    0.1012 C   0  0  0  0  0  0  0  0  0  0  0  0
   -0.0522   -4.5798    1.4099 C   0  0  0  0  0  0  0  0  0  0  0  0
    1.5455   -4.1628    0.6261 S   0  0  0  0  0  0  0  0  0  0  0  0
    2.4890   -5.5551    1.3277 C   0  0  0  0  0  0  0  0  0  0  0  0
    4.0006   -5.4338    1.0463 C   0  0  1  0  0  0  0  0  0  0  0  0
    4.3696   -5.5590   -0.4205 C   0  0  0  0  0  0  0  0  0  0  0  0
    5.5543   -6.2543   -0.8082 N   0  0  0  0  0  0  0  0  0  0  0  0
    3.6493   -5.0343   -1.3177 O   0  0  0  0  0  0  0  0  0  0  0  0
    4.5690   -4.2240    1.6691 N   0  0  0  0  0  0  0  0  0  0  0  0
    4.9840   -3.0591    0.9387 C   0  0  0  0  0  0  0  0  0  0  0  0
    4.1715   -2.5041    0.1492 O   0  0  0  0  0  0  0  0  0  0  0  0
    6.3603   -2.4613    1.1105 C   0  0  1  0  0  0  0  0  0  0  0  0
    7.2670   -3.3114    2.0042 C   0  0  0  0  0  0  0  0  0  0  0  0
    6.9810   -2.3390   -0.2137 N   0  0  0  0  0  0  0  0  0  0  0  0
    7.3462   -1.1073   -0.8491 C   0  0  0  0  0  0  0  0  0  0  0  0
    8.1778   -1.1564   -1.7938 O   0  0  0  0  0  0  0  0  0  0  0  0
    6.8207    0.2439   -0.3971 C   0  0  1  0  0  0  0  0  0  0  0  0
    7.8217    0.8727    0.5809 C   0  0  0  0  0  0  0  0  0  0  0  0
    6.6171    1.1273   -1.5586 N   0  0  0  0  0  0  0  0  0  0  0  0
    5.6138    2.1523   -1.6423 C   0  0  0  0  0  0  0  0  0  0  0  0
    5.2097    2.4962   -2.7838 O   0  0  0  0  0  0  0  0  0  0  0  0
    5.1604    2.9380   -0.4276 C   0  0  1  0  0  0  0  0  0  0  0  0
    6.1315    4.1135   -0.2189 C   0  0  0  0  0  0  0  0  0  0  0  0
    3.7937    3.4497   -0.5976 N   0  0  0  0  0  0  0  0  0  0  0  0
    3.1568    4.2581    0.4047 C   0  0  0  0  0  0  0  0  0  0  0  0
    3.4230    4.0702    1.6274 O   0  0  0  0  0  0  0  0  0  0  0  0
    2.2556    5.4068    0.0213 C   0  0  1  0  0  0  0  0  0  0  0  0
    3.0293    6.7240    0.1050 C   0  0  0  0  0  0  0  0  0  0  0  0
    1.7190    5.2390   -1.3357 N   0  0  0  0  0  0  0  0  0  0  0  0
    0.3482    4.9297   -1.6605 C   0  0  0  0  0  0  0  0  0  0  0  0
   -0.0378    5.0649   -2.8551 O   0  0  0  0  0  0  0  0  0  0  0  0
   -0.6467    4.4591   -0.6264 C   0  0  1  0  0  0  0  0  0  0  0  0
   -1.4542    5.6526   -0.0932 C   0  0  0  0  0  0  0  0  0  0  0  0
   -1.4954    3.4010   -1.1942 N   0  0  0  0  0  0  0  0  0  0  0  0
   -2.9298    3.4267   -1.1891 C   0  0  0  0  0  0  0  0  0  0  0  0
   -3.5313    4.0148   -2.1346 O   0  0  0  0  0  0  0  0  0  0  0  0
   -3.7253    2.6089   -0.1953 C   0  0  1  0  0  0  0  0  0  0  0  0
   -2.9764    2.4099    1.1511 C   0  0  0  0  0  0  0  0  0  0  0  0
   -3.0320    0.6647    1.6920 S   0  0  0  0  0  0  0  0  0  0  0  0
   -1.7251    0.0834    0.5495 C   0  0  0  0  0  0  0  0  0  0  0  0
   -5.0077    3.2736    0.0574 N   0  0  0  0  0  0  0  0  0  0  0  0
   -6.2751    2.6054    0.1646 C   0  0  0  0  0  0  0  0  0  0  0  0
   -7.3270    3.2864    0.0023 O   0  0  0  0  0  0  0  0  0  0  0  0
   -6.4087    1.1699    0.6211 C   0  0  1  0  0  0  0  0  0  0  0  0
   -6.6984    1.1271    2.1244 C   0  0  0  0  0  0  0  0  0  0  0  0
   -7.4986    0.5040   -0.0998 N   0  0  0  0  0  0  0  0  0  0  0  0
   -7.2667   -0.1701   -1.3460 C   0  0  0  0  0  0  0  0  0  0  0  0
   -7.5899    0.4115   -2.4223 O   0  0  0  0  0  0  0  0  0  0  0  0
  -10.5432   -2.7934   -0.3170 H   0  0  0  0  0  0  0  0  0  0  0  0
   -8.9248   -3.2173    0.3302 H   0  0  0  0  0  0  0  0  0  0  0  0
   -9.3300   -1.4938   -0.0516 H   0  0  0  0  0  0  0  0  0  0  0  0
   -7.2500   -2.8325   -3.0546 H   0  0  0  0  0  0  0  0  0  0  0  0
   -5.7571   -1.4279   -2.0503 H   0  0  0  0  0  0  0  0  0  0  0  0
   -6.9901   -2.0544    0.6839 H   0  0  0  0  0  0  0  0  0  0  0  0
   -5.3330   -1.6093    0.3351 H   0  0  0  0  0  0  0  0  0  0  0  0
   -4.4817   -3.2241   -2.1843 H   0  0  0  0  0  0  0  0  0  0  0  0
   -4.0653   -4.8460   -1.6374 H   0  0  0  0  0  0  0  0  0  0  0  0
   -3.5141   -1.2251   -0.9797 H   0  0  0  0  0  0  0  0  0  0  0  0
   -0.2043   -1.8791    1.6686 H   0  0  0  0  0  0  0  0  0  0  0  0
   -2.2939   -5.2343   -0.0314 H   0  0  0  0  0  0  0  0  0  0  0  0
    0.0254   -4.4173    2.5085 H   0  0  0  0  0  0  0  0  0  0  0  0
   -0.3094   -5.6458    1.2174 H   0  0  0  0  0  0  0  0  0  0  0  0
    2.3220   -5.5658    2.4291 H   0  0  0  0  0  0  0  0  0  0  0  0
    2.1062   -6.5111    0.8974 H   0  0  0  0  0  0  0  0  0  0  0  0
    4.4681   -6.3079    1.5540 H   0  0  0  0  0  0  0  0  0  0  0  0
    6.1841   -6.6829   -0.0932 H   0  0  0  0  0  0  0  0  0  0  0  0
    5.7939   -6.3512   -1.8245 H   0  0  0  0  0  0  0  0  0  0  0  0
    4.7649   -4.2556    2.6927 H   0  0  0  0  0  0  0  0  0  0  0  0
    6.2544   -1.4704    1.5968 H   0  0  0  0  0  0  0  0  0  0  0  0
    7.3382   -4.3526    1.6217 H   0  0  0  0  0  0  0  0  0  0  0  0
    6.8821   -3.3321    3.0425 H   0  0  0  0  0  0  0  0  0  0  0  0
    8.2838   -2.8689    2.0226 H   0  0  0  0  0  0  0  0  0  0  0  0
    7.2151   -3.2254   -0.7196 H   0  0  0  0  0  0  0  0  0  0  0  0
    5.8382    0.1013    0.1060 H   0  0  0  0  0  0  0  0  0  0  0  0
    8.0803    0.1448    1.3935 H   0  0  0  0  0  0  0  0  0  0  0  0
    8.7506    1.1618    0.0470 H   0  0  0  0  0  0  0  0  0  0  0  0
    7.3878    1.7714    1.0567 H   0  0  0  0  0  0  0  0  0  0  0  0
    7.1584    0.9410   -2.4330 H   0  0  0  0  0  0  0  0  0  0  0  0
    5.1827    2.2839    0.4639 H   0  0  0  0  0  0  0  0  0  0  0  0
    5.9366    4.6137    0.7509 H   0  0  0  0  0  0  0  0  0  0  0  0
    6.0120    4.8691   -1.0258 H   0  0  0  0  0  0  0  0  0  0  0  0
    7.1892    3.7741   -0.2147 H   0  0  0  0  0  0  0  0  0  0  0  0
    3.2311    3.1789   -1.4410 H   0  0  0  0  0  0  0  0  0  0  0  0
    1.4351    5.4763    0.7642 H   0  0  0  0  0  0  0  0  0  0  0  0
    2.3633    7.5788   -0.1635 H   0  0  0  0  0  0  0  0  0  0  0  0
    3.4176    6.8843    1.1371 H   0  0  0  0  0  0  0  0  0  0  0  0
    3.8917    6.7028   -0.5922 H   0  0  0  0  0  0  0  0  0  0  0  0
    2.3754    5.3768   -2.1372 H   0  0  0  0  0  0  0  0  0  0  0  0
   -0.0935    3.9993    0.2218 H   0  0  0  0  0  0  0  0  0  0  0  0
   -0.7725    6.4179    0.3303 H   0  0  0  0  0  0  0  0  0  0  0  0
   -2.0534    6.1230   -0.9051 H   0  0  0  0  0  0  0  0  0  0  0  0
   -2.1446    5.3172    0.7153 H   0  0  0  0  0  0  0  0  0  0  0  0
   -1.0272    2.5295   -1.5197 H   0  0  0  0  0  0  0  0  0  0  0  0
   -3.9082    1.6425   -0.6920 H   0  0  0  0  0  0  0  0  0  0  0  0
   -1.9153    2.7064    1.1262 H   0  0  0  0  0  0  0  0  0  0  0  0
   -3.4410    3.0232    1.9545 H   0  0  0  0  0  0  0  0  0  0  0  0
   -1.8155    0.5604   -0.4496 H   0  0  0  0  0  0  0  0  0  0  0  0
   -0.7257    0.3504    0.9753 H   0  0  0  0  0  0  0  0  0  0  0  0
   -5.0113    4.3153    0.1524 H   0  0  0  0  0  0  0  0  0  0  0  0
   -5.4740    0.6297    0.4399 H   0  0  0  0  0  0  0  0  0  0  0  0
   -6.7749    0.0801    2.4799 H   0  0  0  0  0  0  0  0  0  0  0  0
   -5.8781    1.6260    2.6836 H   0  0  0  0  0  0  0  0  0  0  0  0
   -7.6524    1.6576    2.3399 H   0  0  0  0  0  0  0  0  0  0  0  0
   -8.4685    0.8759    0.0589 H   0  0  0  0  0  0  0  0  0  0  0  0
  1  2  1  0
  2  3  2  0
  2  4  1  0
  4  5  1  0
  5  6  1  0
  6  7  1  0
  7  8  1  0
  8  9  1  0
  9 10  1  0
 10 11  2  0
 11 12  1  0
 12 13  2  0
 13 14  1  0
 13 15  1  0
 15 16  1  0
 16 17  1  0
 17 18  1  0
 18 19  1  0
 19 20  1  0
 19 21  2  0
 18 22  1  0
 22 23  1  0
 23 24  2  0
 23 25  1  0
 25 26  1  0
 25 27  1  0
 27 28  1  0
 28 29  2  0
 28 30  1  0
 30 31  1  0
 30 32  1  0
 32 33  1  0
 33 34  2  0
 33 35  1  0
 35 36  1  0
 35 37  1  0
 37 38  1  0
 38 39  2  0
 38 40  1  0
 40 41  1  0
 40 42  1  0
 42 43  1  0
 43 44  2  0
 43 45  1  0
 45 46  1  0
 45 47  1  0
 47 48  1  0
 48 49  2  0
 48 50  1  0
 50 51  1  0
 51 52  1  0
 52 53  1  0
 50 54  1  0
 54 55  1  0
 55 56  2  0
 55 57  1  0
 57 58  1  0
 57 59  1  0
 59 60  1  0
 60 61  2  0
 60  5  1  0
 14  9  2  0
 53 11  1  0
  1 62  1  0
  1 63  1  0
  1 64  1  0
  4 65  1  0
  5 66  1  6
  6 67  1  0
  6 68  1  0
  8 69  1  0
  8 70  1  0
 10 71  1  0
 12 72  1  0
 14 73  1  0
 15 74  1  0
 15 75  1  0
 17 76  1  0
 17 77  1  0
 18 78  1  1
 20 79  1  0
 20 80  1  0
 22 81  1  0
 25 82  1  1
 26 83  1  0
 26 84  1  0
 26 85  1  0
 27 86  1  0
 30 87  1  1
 31 88  1  0
 31 89  1  0
 31 90  1  0
 32 91  1  0
 35 92  1  1
 36 93  1  0
 36 94  1  0
 36 95  1  0
 37 96  1  0
 40 97  1  1
 41 98  1  0
 41 99  1  0
 41100  1  0
 42101  1  0
 45102  1  1
 46103  1  0
 46104  1  0
 46105  1  0
 47106  1  0
 50107  1  6
 51108  1  0
 51109  1  0
 53110  1  0
 53111  1  0
 54112  1  0
 57113  1  1
 58114  1  0
 58115  1  0
 58116  1  0
 59117  1  0
M  END
