
     RDKit          3D

147149  0  0  0  0  0  0  0  0999 V2000
  -12.7373   -1.8481   -0.8869 C   0  0  0  0  0  0  0  0  0  0  0  0
  -11.2835   -2.2069   -0.7684 C   0  0  0  0  0  0  0  0  0  0  0  0
  -10.7233   -2.8476   -1.6982 O   0  0  0  0  0  0  0  0  0  0  0  0
  -10.5486   -1.8414    0.4094 N   0  0  0  0  0  0  0  0  0  0  0  0
   -9.1192   -2.1335    0.5665 C   0  0  2  0  0  0  0  0  0  0  0  0
   -8.9378   -3.4528    1.3428 C   0  0  0  0  0  0  0  0  0  0  0  0
   -7.3358   -4.2505    0.9439 S   0  0  0  0  0  0  0  0  0  0  0  0
   -6.4136   -3.8144    2.4631 C   0  0  0  0  0  0  0  0  0  0  0  0
   -5.0576   -3.3136    2.0580 C   0  0  0  0  0  0  0  0  0  0  0  0
   -4.0156   -4.2094    1.7645 C   0  0  0  0  0  0  0  0  0  0  0  0
   -2.8088   -3.7390    1.2162 C   0  0  0  0  0  0  0  0  0  0  0  0
   -2.6793   -2.3774    0.9129 C   0  0  0  0  0  0  0  0  0  0  0  0
   -3.7081   -1.4696    1.2108 C   0  0  0  0  0  0  0  0  0  0  0  0
   -4.8804   -1.9448    1.8106 C   0  0  0  0  0  0  0  0  0  0  0  0
   -3.6473   -0.0561    0.7116 C   0  0  0  0  0  0  0  0  0  0  0  0
   -2.0457    0.7084    1.1201 S   0  0  0  0  0  0  0  0  0  0  0  0
   -1.7322    1.4337   -0.5376 C   0  0  0  0  0  0  0  0  0  0  0  0
   -2.6007    2.6863   -0.8042 C   0  0  2  0  0  0  0  0  0  0  0  0
   -3.8837    2.3203   -1.4258 N   0  0  0  0  0  0  0  0  0  0  0  0
   -5.1008    3.0676   -1.2562 C   0  0  0  0  0  0  0  0  0  0  0  0
   -5.8448    3.2369   -2.2594 O   0  0  0  0  0  0  0  0  0  0  0  0
   -5.5716    3.5674    0.0897 C   0  0  1  0  0  0  0  0  0  0  0  0
   -6.2001    4.9669   -0.0153 C   0  0  0  0  0  0  0  0  0  0  0  0
   -6.4921    2.5944    0.6899 N   0  0  0  0  0  0  0  0  0  0  0  0
   -7.8682    2.4261    0.3034 C   0  0  0  0  0  0  0  0  0  0  0  0
   -8.6799    3.3842    0.4449 O   0  0  0  0  0  0  0  0  0  0  0  0
   -8.3833    1.0991   -0.1928 C   0  0  1  0  0  0  0  0  0  0  0  0
   -8.2009    0.9837   -1.7035 C   0  0  0  0  0  0  0  0  0  0  0  0
   -7.7182   -0.0176    0.4733 N   0  0  0  0  0  0  0  0  0  0  0  0
   -8.4542   -0.9670    1.2488 C   0  0  0  0  0  0  0  0  0  0  0  0
   -8.6819   -0.7217    2.4655 O   0  0  0  0  0  0  0  0  0  0  0  0
   -1.8419    3.6437   -1.6913 C   0  0  0  0  0  0  0  0  0  0  0  0
   -1.9819    3.5622   -2.9422 O   0  0  0  0  0  0  0  0  0  0  0  0
   -0.9246    4.6170   -1.1582 N   0  0  0  0  0  0  0  0  0  0  0  0
   -0.5396    4.7141    0.2533 C   0  0  2  0  0  0  0  0  0  0  0  0
   -1.2103    5.9300    0.8947 C   0  0  0  0  0  0  0  0  0  0  0  0
    0.9608    4.8017    0.3683 C   0  0  0  0  0  0  0  0  0  0  0  0
    1.5756    3.9332    1.0372 O   0  0  0  0  0  0  0  0  0  0  0  0
    1.6885    5.8542   -0.2791 N   0  0  0  0  0  0  0  0  0  0  0  0
    3.1506    5.9403   -0.2260 C   0  0  2  0  0  0  0  0  0  0  0  0
    3.6059    7.3596   -0.5885 C   0  0  0  0  0  0  0  0  0  0  0  0
    3.7516    4.9456   -1.1931 C   0  0  0  0  0  0  0  0  0  0  0  0
    3.4129    5.0083   -2.4068 O   0  0  0  0  0  0  0  0  0  0  0  0
    4.7164    3.9416   -0.8013 N   0  0  0  0  0  0  0  0  0  0  0  0
    5.4246    3.8807    0.4826 C   0  0  2  0  0  0  0  0  0  0  0  0
    6.3142    5.1103    0.6842 C   0  0  0  0  0  0  0  0  0  0  0  0
    6.2583    2.6187    0.5531 C   0  0  0  0  0  0  0  0  0  0  0  0
    6.0418    1.7818    1.4674 O   0  0  0  0  0  0  0  0  0  0  0  0
    7.2788    2.3491   -0.4152 N   0  0  0  0  0  0  0  0  0  0  0  0
    8.6530    2.8132   -0.2087 C   0  0  2  0  0  0  0  0  0  0  0  0
    9.4218    2.8322   -1.5315 C   0  0  0  0  0  0  0  0  0  0  0  0
    9.3515    1.9680    0.8246 C   0  0  0  0  0  0  0  0  0  0  0  0
    9.5005    2.4164    1.9923 O   0  0  0  0  0  0  0  0  0  0  0  0
    9.8985    0.6901    0.4857 N   0  0  0  0  0  0  0  0  0  0  0  0
    9.0717   -0.5211    0.4749 C   0  0  2  0  0  0  0  0  0  0  0  0
    9.2007   -1.2302    1.8306 C   0  0  0  0  0  0  0  0  0  0  0  0
    9.5070   -1.4266   -0.6525 C   0  0  0  0  0  0  0  0  0  0  0  0
   10.7133   -1.4081   -1.0309 O   0  0  0  0  0  0  0  0  0  0  0  0
    8.5802   -2.2873   -1.3419 N   0  0  0  0  0  0  0  0  0  0  0  0
    7.4862   -3.0104   -0.6751 C   0  0  2  0  0  0  0  0  0  0  0  0
    8.0772   -4.2523    0.0108 C   0  0  0  0  0  0  0  0  0  0  0  0
    6.4121   -3.3889   -1.6805 C   0  0  0  0  0  0  0  0  0  0  0  0
    6.4306   -2.8596   -2.8245 O   0  0  0  0  0  0  0  0  0  0  0  0
    5.4104   -4.3751   -1.4036 N   0  0  0  0  0  0  0  0  0  0  0  0
    4.6903   -4.4969   -0.1288 C   0  0  2  0  0  0  0  0  0  0  0  0
    4.7942   -5.9377    0.3829 C   0  0  0  0  0  0  0  0  0  0  0  0
    3.2337   -4.1426   -0.3054 C   0  0  0  0  0  0  0  0  0  0  0  0
    2.7071   -3.2693    0.4378 O   0  0  0  0  0  0  0  0  0  0  0  0
    2.4233   -4.8285   -1.2719 N   0  0  0  0  0  0  0  0  0  0  0  0
    1.0902   -5.3495   -0.9415 C   0  0  2  0  0  0  0  0  0  0  0  0
    0.8565   -6.6475   -1.6868 C   0  0  0  0  0  0  0  0  0  0  0  0
    0.6301   -7.8650   -0.9748 N   0  0  0  0  0  0  0  0  0  0  0  0
    0.8752   -6.6572   -2.9494 O   0  0  0  0  0  0  0  0  0  0  0  0
    0.0048   -4.3138   -1.2911 C   0  0  0  0  0  0  0  0  0  0  0  0
   -1.6802   -4.9581   -0.9578 S   0  0  0  0  0  0  0  0  0  0  0  0
   -1.6888   -4.6763    0.8549 C   0  0  0  0  0  0  0  0  0  0  0  0
  -13.1760   -2.2978   -1.8085 H   0  0  0  0  0  0  0  0  0  0  0  0
  -13.2915   -2.2367   -0.0060 H   0  0  0  0  0  0  0  0  0  0  0  0
  -12.8393   -0.7469   -0.9382 H   0  0  0  0  0  0  0  0  0  0  0  0
  -11.0805   -1.4559    1.2238 H   0  0  0  0  0  0  0  0  0  0  0  0
   -8.6616   -2.2430   -0.4380 H   0  0  0  0  0  0  0  0  0  0  0  0
   -9.0889   -3.3133    2.4348 H   0  0  0  0  0  0  0  0  0  0  0  0
   -9.7269   -4.1660    1.0144 H   0  0  0  0  0  0  0  0  0  0  0  0
   -6.3217   -4.7101    3.1144 H   0  0  0  0  0  0  0  0  0  0  0  0
   -6.9398   -3.0359    3.0610 H   0  0  0  0  0  0  0  0  0  0  0  0
   -4.1456   -5.2710    1.9491 H   0  0  0  0  0  0  0  0  0  0  0  0
   -1.7882   -2.0335    0.4030 H   0  0  0  0  0  0  0  0  0  0  0  0
   -5.6842   -1.2592    2.0271 H   0  0  0  0  0  0  0  0  0  0  0  0
   -3.8363   -0.0864   -0.3797 H   0  0  0  0  0  0  0  0  0  0  0  0
   -4.4402    0.5562    1.1792 H   0  0  0  0  0  0  0  0  0  0  0  0
   -1.8571    0.6679   -1.3302 H   0  0  0  0  0  0  0  0  0  0  0  0
   -0.6519    1.7084   -0.5400 H   0  0  0  0  0  0  0  0  0  0  0  0
   -2.7926    3.1879    0.1612 H   0  0  0  0  0  0  0  0  0  0  0  0
   -3.8356    1.6852   -2.2540 H   0  0  0  0  0  0  0  0  0  0  0  0
   -4.7162    3.6801    0.7826 H   0  0  0  0  0  0  0  0  0  0  0  0
   -7.0378    4.9853   -0.7479 H   0  0  0  0  0  0  0  0  0  0  0  0
   -5.4257    5.6969   -0.3484 H   0  0  0  0  0  0  0  0  0  0  0  0
   -6.5785    5.2884    0.9770 H   0  0  0  0  0  0  0  0  0  0  0  0
   -6.1529    2.0395    1.5064 H   0  0  0  0  0  0  0  0  0  0  0  0
   -9.4795    1.0595    0.0188 H   0  0  0  0  0  0  0  0  0  0  0  0
   -8.6814    1.8525   -2.2143 H   0  0  0  0  0  0  0  0  0  0  0  0
   -8.6843    0.0529   -2.0665 H   0  0  0  0  0  0  0  0  0  0  0  0
   -7.1260    0.9554   -1.9729 H   0  0  0  0  0  0  0  0  0  0  0  0
   -6.7129   -0.2183    0.2477 H   0  0  0  0  0  0  0  0  0  0  0  0
   -0.5788    5.3486   -1.8198 H   0  0  0  0  0  0  0  0  0  0  0  0
   -0.8478    3.8186    0.8277 H   0  0  0  0  0  0  0  0  0  0  0  0
   -2.3167    5.8099    0.8512 H   0  0  0  0  0  0  0  0  0  0  0  0
   -0.9373    6.8677    0.3604 H   0  0  0  0  0  0  0  0  0  0  0  0
   -0.9080    6.0217    1.9608 H   0  0  0  0  0  0  0  0  0  0  0  0
    1.1506    6.5877   -0.7958 H   0  0  0  0  0  0  0  0  0  0  0  0
    3.4715    5.7364    0.8140 H   0  0  0  0  0  0  0  0  0  0  0  0
    3.2171    7.6435   -1.5844 H   0  0  0  0  0  0  0  0  0  0  0  0
    4.7049    7.4248   -0.5995 H   0  0  0  0  0  0  0  0  0  0  0  0
    3.2110    8.0788    0.1689 H   0  0  0  0  0  0  0  0  0  0  0  0
    4.9432    3.2218   -1.5326 H   0  0  0  0  0  0  0  0  0  0  0  0
    4.6786    3.8448    1.3045 H   0  0  0  0  0  0  0  0  0  0  0  0
    6.8939    5.3341   -0.2452 H   0  0  0  0  0  0  0  0  0  0  0  0
    7.0168    4.9466    1.5333 H   0  0  0  0  0  0  0  0  0  0  0  0
    5.7157    6.0035    0.9467 H   0  0  0  0  0  0  0  0  0  0  0  0
    7.1236    1.5278   -1.0402 H   0  0  0  0  0  0  0  0  0  0  0  0
    8.6353    3.8582    0.1637 H   0  0  0  0  0  0  0  0  0  0  0  0
    8.9174    3.5120   -2.2490 H   0  0  0  0  0  0  0  0  0  0  0  0
    9.4691    1.8125   -1.9818 H   0  0  0  0  0  0  0  0  0  0  0  0
   10.4550    3.2011   -1.3645 H   0  0  0  0  0  0  0  0  0  0  0  0
   10.9284    0.5706    0.6320 H   0  0  0  0  0  0  0  0  0  0  0  0
    8.0054   -0.2425    0.3222 H   0  0  0  0  0  0  0  0  0  0  0  0
    8.4865   -2.0754    1.9110 H   0  0  0  0  0  0  0  0  0  0  0  0
    8.9729   -0.5082    2.6522 H   0  0  0  0  0  0  0  0  0  0  0  0
   10.2370   -1.6102    1.9787 H   0  0  0  0  0  0  0  0  0  0  0  0
    8.9333   -2.7047   -2.2342 H   0  0  0  0  0  0  0  0  0  0  0  0
    7.0194   -2.3569    0.0877 H   0  0  0  0  0  0  0  0  0  0  0  0
    9.0481   -4.0070    0.4962 H   0  0  0  0  0  0  0  0  0  0  0  0
    8.2543   -5.0613   -0.7276 H   0  0  0  0  0  0  0  0  0  0  0  0
    7.3982   -4.6119    0.8089 H   0  0  0  0  0  0  0  0  0  0  0  0
    5.0999   -4.9627   -2.2079 H   0  0  0  0  0  0  0  0  0  0  0  0
    5.1365   -3.8232    0.6331 H   0  0  0  0  0  0  0  0  0  0  0  0
    5.8536   -6.2489    0.4859 H   0  0  0  0  0  0  0  0  0  0  0  0
    4.3020   -6.6431   -0.3253 H   0  0  0  0  0  0  0  0  0  0  0  0
    4.3051   -6.0278    1.3749 H   0  0  0  0  0  0  0  0  0  0  0  0
    2.8874   -5.1836   -2.1436 H   0  0  0  0  0  0  0  0  0  0  0  0
    1.0498   -5.5556    0.1512 H   0  0  0  0  0  0  0  0  0  0  0  0
    0.5697   -8.7733   -1.4954 H   0  0  0  0  0  0  0  0  0  0  0  0
    0.5593   -7.8773    0.0678 H   0  0  0  0  0  0  0  0  0  0  0  0
    0.0639   -4.0648   -2.3728 H   0  0  0  0  0  0  0  0  0  0  0  0
    0.1792   -3.3692   -0.7340 H   0  0  0  0  0  0  0  0  0  0  0  0
   -1.7980   -5.6500    1.3819 H   0  0  0  0  0  0  0  0  0  0  0  0
   -0.7320   -4.2294    1.2045 H   0  0  0  0  0  0  0  0  0  0  0  0
  1  2  1  0
  2  3  2  0
  2  4  1  0
  4  5  1  0
  5  6  1  0
  6  7  1  0
  7  8  1  0
  8  9  1  0
  9 10  2  0
 10 11  1  0
 11 12  2  0
 12 13  1  0
 13 14  2  0
 13 15  1  0
 15 16  1  0
 16 17  1  0
 17 18  1  0
 18 19  1  0
 19 20  1  0
 20 21  2  0
 20 22  1  0
 22 23  1  0
 22 24  1  0
 24 25  1  0
 25 26  2  0
 25 27  1  0
 27 28  1  0
 27 29  1  0
 29 30  1  0
 30 31  2  0
 18 32  1  0
 32 33  2  0
 32 34  1  0
 34 35  1  0
 35 36  1  0
 35 37  1  0
 37 38  2  0
 37 39  1  0
 39 40  1  0
 40 41  1  0
 40 42  1  0
 42 43  2  0
 42 44  1  0
 44 45  1  0
 45 46  1  0
 45 47  1  0
 47 48  2  0
 47 49  1  0
 49 50  1  0
 50 51  1  0
 50 52  1  0
 52 53  2  0
 52 54  1  0
 54 55  1  0
 55 56  1  0
 55 57  1  0
 57 58  2  0
 57 59  1  0
 59 60  1  0
 60 61  1  0
 60 62  1  0
 62 63  2  0
 62 64  1  0
 64 65  1  0
 65 66  1  0
 65 67  1  0
 67 68  2  0
 67 69  1  0
 69 70  1  0
 70 71  1  0
 71 72  1  0
 71 73  2  0
 70 74  1  0
 74 75  1  0
 75 76  1  0
 30  5  1  0
 14  9  1  0
 76 11  1  0
  1 77  1  0
  1 78  1  0
  1 79  1  0
  4 80  1  0
  5 81  1  6
  6 82  1  0
  6 83  1  0
  8 84  1  0
  8 85  1  0
 10 86  1  0
 12 87  1  0
 14 88  1  0
 15 89  1  0
 15 90  1  0
 17 91  1  0
 17 92  1  0
 18 93  1  1
 19 94  1  0
 22 95  1  1
 23 96  1  0
 23 97  1  0
 23 98  1  0
 24 99  1  0
 27100  1  6
 28101  1  0
 28102  1  0
 28103  1  0
 29104  1  0
 34105  1  0
 35106  1  1
 36107  1  0
 36108  1  0
 36109  1  0
 39110  1  0
 40111  1  1
 41112  1  0
 41113  1  0
 41114  1  0
 44115  1  0
 45116  1  1
 46117  1  0
 46118  1  0
 46119  1  0
 49120  1  0
 50121  1  1
 51122  1  0
 51123  1  0
 51124  1  0
 54125  1  0
 55126  1  6
 56127  1  0
 56128  1  0
 56129  1  0
 59130  1  0
 60131  1  1
 61132  1  0
 61133  1  0
 61134  1  0
 64135  1  0
 65136  1  1
 66137  1  0
 66138  1  0
 66139  1  0
 69140  1  0
 70141  1  1
 72142  1  0
 72143  1  0
 74144  1  0
 74145  1  0
 76146  1  0
 76147  1  0
M  END
