
     RDKit          3D

157159  0  0  0  0  0  0  0  0999 V2000
   12.7531   -1.6140    0.3234 C   0  0  0  0  0  0  0  0  0  0  0  0
   11.2894   -1.9071    0.2698 C   0  0  0  0  0  0  0  0  0  0  0  0
   10.7874   -2.6823    1.1309 O   0  0  0  0  0  0  0  0  0  0  0  0
   10.4595   -1.3095   -0.7404 N   0  0  0  0  0  0  0  0  0  0  0  0
    8.9997   -1.4339   -0.7045 C   0  0  2  0  0  0  0  0  0  0  0  0
    8.5607   -2.7916   -1.3082 C   0  0  0  0  0  0  0  0  0  0  0  0
    7.1691   -3.5299   -0.3738 S   0  0  0  0  0  0  0  0  0  0  0  0
    5.8187   -2.7094   -1.2919 C   0  0  0  0  0  0  0  0  0  0  0  0
    4.5728   -2.7338   -0.4598 C   0  0  0  0  0  0  0  0  0  0  0  0
    3.4774   -3.5347   -0.8158 C   0  0  0  0  0  0  0  0  0  0  0  0
    2.3192   -3.5459   -0.0243 C   0  0  0  0  0  0  0  0  0  0  0  0
    2.2498   -2.7309    1.1173 C   0  0  0  0  0  0  0  0  0  0  0  0
    3.3307   -1.9092    1.4682 C   0  0  0  0  0  0  0  0  0  0  0  0
    4.4996   -1.9413    0.6913 C   0  0  0  0  0  0  0  0  0  0  0  0
    3.2492   -0.9851    2.6571 C   0  0  0  0  0  0  0  0  0  0  0  0
    2.2428    0.5110    2.2987 S   0  0  0  0  0  0  0  0  0  0  0  0
    3.1398    1.0448    0.7862 C   0  0  0  0  0  0  0  0  0  0  0  0
    3.1820    2.5681    0.5893 C   0  0  2  0  0  0  0  0  0  0  0  0
    3.8992    3.2114    1.6973 N   0  0  0  0  0  0  0  0  0  0  0  0
    5.1601    3.9007    1.5680 C   0  0  0  0  0  0  0  0  0  0  0  0
    5.4751    4.7485    2.4484 O   0  0  0  0  0  0  0  0  0  0  0  0
    6.1063    3.6552    0.4124 C   0  0  1  0  0  0  0  0  0  0  0  0
    5.8598    4.6768   -0.7045 C   0  0  0  0  0  0  0  0  0  0  0  0
    7.4997    3.7730    0.8667 N   0  0  0  0  0  0  0  0  0  0  0  0
    8.5468    2.8076    0.6501 C   0  0  0  0  0  0  0  0  0  0  0  0
    9.7338    3.2267    0.5456 O   0  0  0  0  0  0  0  0  0  0  0  0
    8.3183    1.3062    0.6196 C   0  0  1  0  0  0  0  0  0  0  0  0
    7.3909    0.8394    1.7470 C   0  0  0  0  0  0  0  0  0  0  0  0
    7.8361    0.8716   -0.6972 N   0  0  0  0  0  0  0  0  0  0  0  0
    8.3727   -0.2530   -1.4136 C   0  0  0  0  0  0  0  0  0  0  0  0
    8.3403   -0.2415   -2.6735 O   0  0  0  0  0  0  0  0  0  0  0  0
    1.8386    3.2239    0.3933 C   0  0  0  0  0  0  0  0  0  0  0  0
    0.7734    2.5588    0.4943 O   0  0  0  0  0  0  0  0  0  0  0  0
    1.7978    4.6078    0.0164 N   0  0  0  0  0  0  0  0  0  0  0  0
    0.6233    5.2524   -0.5848 C   0  0  2  0  0  0  0  0  0  0  0  0
    0.2228    4.5277   -1.8785 C   0  0  0  0  0  0  0  0  0  0  0  0
    0.9340    6.7006   -0.9046 C   0  0  0  0  0  0  0  0  0  0  0  0
    2.0131    6.9844   -1.4866 O   0  0  0  0  0  0  0  0  0  0  0  0
    0.0255    7.7668   -0.5762 N   0  0  0  0  0  0  0  0  0  0  0  0
   -1.4332    7.6209   -0.6285 C   0  0  2  0  0  0  0  0  0  0  0  0
   -2.0743    8.9310   -1.0963 C   0  0  0  0  0  0  0  0  0  0  0  0
   -1.9730    7.2542    0.7337 C   0  0  0  0  0  0  0  0  0  0  0  0
   -1.6130    7.9465    1.7237 O   0  0  0  0  0  0  0  0  0  0  0  0
   -2.8872    6.1631    0.9498 N   0  0  0  0  0  0  0  0  0  0  0  0
   -3.3688    5.2366   -0.0817 C   0  0  2  0  0  0  0  0  0  0  0  0
   -4.3992    5.9081   -0.9930 C   0  0  0  0  0  0  0  0  0  0  0  0
   -3.9843    4.0219    0.5573 C   0  0  0  0  0  0  0  0  0  0  0  0
   -3.3682    2.9153    0.5433 O   0  0  0  0  0  0  0  0  0  0  0  0
   -5.2620    4.1117    1.1958 N   0  0  0  0  0  0  0  0  0  0  0  0
   -6.4296    3.4105    0.6595 C   0  0  2  0  0  0  0  0  0  0  0  0
   -7.6516    4.3370    0.6768 C   0  0  0  0  0  0  0  0  0  0  0  0
   -6.6866    2.1532    1.4403 C   0  0  0  0  0  0  0  0  0  0  0  0
   -7.0955    2.2293    2.6296 O   0  0  0  0  0  0  0  0  0  0  0  0
   -6.3640    0.8749    0.8753 N   0  0  0  0  0  0  0  0  0  0  0  0
   -7.3356    0.0222    0.1703 C   0  0  2  0  0  0  0  0  0  0  0  0
   -8.0469    0.8058   -0.9387 C   0  0  0  0  0  0  0  0  0  0  0  0
   -8.3400   -0.5955    1.1207 C   0  0  0  0  0  0  0  0  0  0  0  0
   -8.4106   -0.1939    2.3121 O   0  0  0  0  0  0  0  0  0  0  0  0
   -9.2871   -1.5777    0.6720 N   0  0  0  0  0  0  0  0  0  0  0  0
   -8.9379   -2.7606   -0.1191 C   0  0  2  0  0  0  0  0  0  0  0  0
   -9.8753   -2.8519   -1.3316 C   0  0  0  0  0  0  0  0  0  0  0  0
   -9.0740   -3.9919    0.7534 C   0  0  0  0  0  0  0  0  0  0  0  0
  -10.2220   -4.2818    1.1899 O   0  0  0  0  0  0  0  0  0  0  0  0
   -7.9656   -4.8344    1.1491 N   0  0  0  0  0  0  0  0  0  0  0  0
   -6.5634   -4.7708    0.6958 C   0  0  2  0  0  0  0  0  0  0  0  0
   -5.9166   -3.4160    1.0286 C   0  0  0  0  0  0  0  0  0  0  0  0
   -6.4391   -5.1603   -0.7663 C   0  0  0  0  0  0  0  0  0  0  0  0
   -7.4790   -5.2152   -1.4738 O   0  0  0  0  0  0  0  0  0  0  0  0
   -5.1869   -5.5440   -1.3724 N   0  0  0  0  0  0  0  0  0  0  0  0
   -3.8826   -5.6023   -0.7031 C   0  0  2  0  0  0  0  0  0  0  0  0
   -2.8549   -4.9040   -1.6071 C   0  0  0  0  0  0  0  0  0  0  0  0
   -3.5285   -7.0482   -0.4081 C   0  0  0  0  0  0  0  0  0  0  0  0
   -4.4494   -7.8436   -0.0655 O   0  0  0  0  0  0  0  0  0  0  0  0
   -2.1897   -7.5576   -0.5199 N   0  0  0  0  0  0  0  0  0  0  0  0
   -1.0722   -7.0285    0.2648 C   0  0  1  0  0  0  0  0  0  0  0  0
   -0.8789   -7.8633    1.5079 C   0  0  0  0  0  0  0  0  0  0  0  0
   -0.6111   -9.2631    1.4276 N   0  0  0  0  0  0  0  0  0  0  0  0
   -0.9494   -7.3122    2.6403 O   0  0  0  0  0  0  0  0  0  0  0  0
    0.1922   -7.0057   -0.6048 C   0  0  0  0  0  0  0  0  0  0  0  0
    1.5859   -6.1548    0.2255 S   0  0  0  0  0  0  0  0  0  0  0  0
    1.1897   -4.4713   -0.3703 C   0  0  0  0  0  0  0  0  0  0  0  0
   13.0028   -1.1398    1.2942 H   0  0  0  0  0  0  0  0  0  0  0  0
   13.0515   -0.9208   -0.4919 H   0  0  0  0  0  0  0  0  0  0  0  0
   13.3262   -2.5585    0.2153 H   0  0  0  0  0  0  0  0  0  0  0  0
   10.9111   -0.7282   -1.4830 H   0  0  0  0  0  0  0  0  0  0  0  0
    8.6815   -1.4116    0.3558 H   0  0  0  0  0  0  0  0  0  0  0  0
    9.3965   -3.5172   -1.2244 H   0  0  0  0  0  0  0  0  0  0  0  0
    8.3198   -2.7282   -2.3905 H   0  0  0  0  0  0  0  0  0  0  0  0
    5.6718   -3.2395   -2.2596 H   0  0  0  0  0  0  0  0  0  0  0  0
    6.0695   -1.6560   -1.5199 H   0  0  0  0  0  0  0  0  0  0  0  0
    3.5308   -4.1683   -1.6952 H   0  0  0  0  0  0  0  0  0  0  0  0
    1.3523   -2.7351    1.7316 H   0  0  0  0  0  0  0  0  0  0  0  0
    5.3458   -1.3291    0.9664 H   0  0  0  0  0  0  0  0  0  0  0  0
    2.7818   -1.5240    3.5077 H   0  0  0  0  0  0  0  0  0  0  0  0
    4.2613   -0.6676    2.9881 H   0  0  0  0  0  0  0  0  0  0  0  0
    2.6593    0.5656   -0.0948 H   0  0  0  0  0  0  0  0  0  0  0  0
    4.1912    0.7030    0.8280 H   0  0  0  0  0  0  0  0  0  0  0  0
    3.7255    2.7277   -0.3620 H   0  0  0  0  0  0  0  0  0  0  0  0
    3.4370    3.2325    2.6360 H   0  0  0  0  0  0  0  0  0  0  0  0
    5.9202    2.6521   -0.0001 H   0  0  0  0  0  0  0  0  0  0  0  0
    6.0608    5.7082   -0.3442 H   0  0  0  0  0  0  0  0  0  0  0  0
    4.8068    4.6283   -1.0590 H   0  0  0  0  0  0  0  0  0  0  0  0
    6.5305    4.4593   -1.5680 H   0  0  0  0  0  0  0  0  0  0  0  0
    7.8074    4.7194    1.1996 H   0  0  0  0  0  0  0  0  0  0  0  0
    9.3056    0.8334    0.8112 H   0  0  0  0  0  0  0  0  0  0  0  0
    6.3447    1.1575    1.5907 H   0  0  0  0  0  0  0  0  0  0  0  0
    7.7395    1.2533    2.7186 H   0  0  0  0  0  0  0  0  0  0  0  0
    7.4072   -0.2667    1.8323 H   0  0  0  0  0  0  0  0  0  0  0  0
    7.2935    1.5492   -1.2813 H   0  0  0  0  0  0  0  0  0  0  0  0
    2.6725    5.1638    0.1575 H   0  0  0  0  0  0  0  0  0  0  0  0
   -0.2213    5.1985    0.1359 H   0  0  0  0  0  0  0  0  0  0  0  0
   -0.5524    5.0947   -2.4274 H   0  0  0  0  0  0  0  0  0  0  0  0
   -0.2011    3.5288   -1.6473 H   0  0  0  0  0  0  0  0  0  0  0  0
    1.1064    4.3964   -2.5375 H   0  0  0  0  0  0  0  0  0  0  0  0
    0.4329    8.7336   -0.5808 H   0  0  0  0  0  0  0  0  0  0  0  0
   -1.6879    6.8564   -1.3832 H   0  0  0  0  0  0  0  0  0  0  0  0
   -1.7610    9.7831   -0.4474 H   0  0  0  0  0  0  0  0  0  0  0  0
   -1.7669    9.1494   -2.1450 H   0  0  0  0  0  0  0  0  0  0  0  0
   -3.1847    8.8582   -1.0726 H   0  0  0  0  0  0  0  0  0  0  0  0
   -3.2028    6.0200    1.9381 H   0  0  0  0  0  0  0  0  0  0  0  0
   -2.5116    4.8907   -0.6953 H   0  0  0  0  0  0  0  0  0  0  0  0
   -3.9253    6.6413   -1.6734 H   0  0  0  0  0  0  0  0  0  0  0  0
   -4.9062    5.1509   -1.6330 H   0  0  0  0  0  0  0  0  0  0  0  0
   -5.1688    6.4384   -0.3876 H   0  0  0  0  0  0  0  0  0  0  0  0
   -5.3798    4.7610    2.0132 H   0  0  0  0  0  0  0  0  0  0  0  0
   -6.2304    3.1385   -0.4020 H   0  0  0  0  0  0  0  0  0  0  0  0
   -7.9097    4.6246    1.7159 H   0  0  0  0  0  0  0  0  0  0  0  0
   -7.4309    5.2615    0.0995 H   0  0  0  0  0  0  0  0  0  0  0  0
   -8.5285    3.8400    0.2186 H   0  0  0  0  0  0  0  0  0  0  0  0
   -5.3526    0.6165    0.8245 H   0  0  0  0  0  0  0  0  0  0  0  0
   -6.7645   -0.7933   -0.3170 H   0  0  0  0  0  0  0  0  0  0  0  0
   -7.2973    1.2918   -1.6008 H   0  0  0  0  0  0  0  0  0  0  0  0
   -8.7183    1.5751   -0.5082 H   0  0  0  0  0  0  0  0  0  0  0  0
   -8.6563    0.1174   -1.5582 H   0  0  0  0  0  0  0  0  0  0  0  0
  -10.2314   -1.5628    1.1203 H   0  0  0  0  0  0  0  0  0  0  0  0
   -7.9128   -2.6789   -0.5191 H   0  0  0  0  0  0  0  0  0  0  0  0
  -10.9333   -2.9392   -1.0024 H   0  0  0  0  0  0  0  0  0  0  0  0
   -9.6237   -3.7319   -1.9550 H   0  0  0  0  0  0  0  0  0  0  0  0
   -9.7806   -1.9430   -1.9549 H   0  0  0  0  0  0  0  0  0  0  0  0
   -8.1910   -5.5907    1.8365 H   0  0  0  0  0  0  0  0  0  0  0  0
   -6.0121   -5.5484    1.2710 H   0  0  0  0  0  0  0  0  0  0  0  0
   -5.6454   -2.8545    0.1103 H   0  0  0  0  0  0  0  0  0  0  0  0
   -6.5914   -2.7870    1.6523 H   0  0  0  0  0  0  0  0  0  0  0  0
   -4.9904   -3.5642    1.6225 H   0  0  0  0  0  0  0  0  0  0  0  0
   -5.2303   -5.8901   -2.3567 H   0  0  0  0  0  0  0  0  0  0  0  0
   -3.9042   -5.0587    0.2571 H   0  0  0  0  0  0  0  0  0  0  0  0
   -2.6070   -5.5381   -2.4860 H   0  0  0  0  0  0  0  0  0  0  0  0
   -1.9276   -4.6655   -1.0552 H   0  0  0  0  0  0  0  0  0  0  0  0
   -3.2683   -3.9359   -1.9679 H   0  0  0  0  0  0  0  0  0  0  0  0
   -2.0903   -8.5217   -0.9150 H   0  0  0  0  0  0  0  0  0  0  0  0
   -1.3057   -5.9937    0.5909 H   0  0  0  0  0  0  0  0  0  0  0  0
   -0.5263   -9.8241    2.3046 H   0  0  0  0  0  0  0  0  0  0  0  0
   -0.5282   -9.7506    0.5103 H   0  0  0  0  0  0  0  0  0  0  0  0
   -0.0352   -6.5151   -1.5762 H   0  0  0  0  0  0  0  0  0  0  0  0
    0.5130   -8.0405   -0.8462 H   0  0  0  0  0  0  0  0  0  0  0  0
    1.0477   -4.4748   -1.4758 H   0  0  0  0  0  0  0  0  0  0  0  0
    0.2399   -4.1308    0.0960 H   0  0  0  0  0  0  0  0  0  0  0  0
  1  2  1  0
  2  3  2  0
  2  4  1  0
  4  5  1  0
  5  6  1  0
  6  7  1  0
  7  8  1  0
  8  9  1  0
  9 10  2  0
 10 11  1  0
 11 12  2  0
 12 13  1  0
 13 14  2  0
 13 15  1  0
 15 16  1  0
 16 17  1  0
 17 18  1  0
 18 19  1  0
 19 20  1  0
 20 21  2  0
 20 22  1  0
 22 23  1  0
 22 24  1  0
 24 25  1  0
 25 26  2  0
 25 27  1  0
 27 28  1  0
 27 29  1  0
 29 30  1  0
 30 31  2  0
 18 32  1  0
 32 33  2  0
 32 34  1  0
 34 35  1  0
 35 36  1  0
 35 37  1  0
 37 38  2  0
 37 39  1  0
 39 40  1  0
 40 41  1  0
 40 42  1  0
 42 43  2  0
 42 44  1  0
 44 45  1  0
 45 46  1  0
 45 47  1  0
 47 48  2  0
 47 49  1  0
 49 50  1  0
 50 51  1  0
 50 52  1  0
 52 53  2  0
 52 54  1  0
 54 55  1  0
 55 56  1  0
 55 57  1  0
 57 58  2  0
 57 59  1  0
 59 60  1  0
 60 61  1  0
 60 62  1  0
 62 63  2  0
 62 64  1  0
 64 65  1  0
 65 66  1  0
 65 67  1  0
 67 68  2  0
 67 69  1  0
 69 70  1  0
 70 71  1  0
 70 72  1  0
 72 73  2  0
 72 74  1  0
 74 75  1  0
 75 76  1  0
 76 77  1  0
 76 78  2  0
 75 79  1  0
 79 80  1  0
 80 81  1  0
 30  5  1  0
 14  9  1  0
 81 11  1  0
  1 82  1  0
  1 83  1  0
  1 84  1  0
  4 85  1  0
  5 86  1  1
  6 87  1  0
  6 88  1  0
  8 89  1  0
  8 90  1  0
 10 91  1  0
 12 92  1  0
 14 93  1  0
 15 94  1  0
 15 95  1  0
 17 96  1  0
 17 97  1  0
 18 98  1  6
 19 99  1  0
 22100  1  6
 23101  1  0
 23102  1  0
 23103  1  0
 24104  1  0
 27105  1  1
 28106  1  0
 28107  1  0
 28108  1  0
 29109  1  0
 34110  1  0
 35111  1  1
 36112  1  0
 36113  1  0
 36114  1  0
 39115  1  0
 40116  1  6
 41117  1  0
 41118  1  0
 41119  1  0
 44120  1  0
 45121  1  6
 46122  1  0
 46123  1  0
 46124  1  0
 49125  1  0
 50126  1  6
 51127  1  0
 51128  1  0
 51129  1  0
 54130  1  0
 55131  1  6
 56132  1  0
 56133  1  0
 56134  1  0
 59135  1  0
 60136  1  6
 61137  1  0
 61138  1  0
 61139  1  0
 64140  1  0
 65141  1  1
 66142  1  0
 66143  1  0
 66144  1  0
 69145  1  0
 70146  1  1
 71147  1  0
 71148  1  0
 71149  1  0
 74150  1  0
 75151  1  1
 77152  1  0
 77153  1  0
 79154  1  0
 79155  1  0
 81156  1  0
 81157  1  0
M  END
