
     RDKit          3D

157159  0  0  0  0  0  0  0  0999 V2000
   -9.7034    3.5872    3.9338 C   0  0  0  0  0  0  0  0  0  0  0  0
   -9.5517    2.9789    2.5751 C   0  0  0  0  0  0  0  0  0  0  0  0
  -10.1800    3.4857    1.6066 O   0  0  0  0  0  0  0  0  0  0  0  0
   -8.6879    1.8437    2.3752 N   0  0  0  0  0  0  0  0  0  0  0  0
   -8.5651    1.0871    1.1191 C   0  0  2  0  0  0  0  0  0  0  0  0
   -8.1482    1.9806   -0.0768 C   0  0  0  0  0  0  0  0  0  0  0  0
   -7.0371    3.3701    0.3693 S   0  0  0  0  0  0  0  0  0  0  0  0
   -5.5285    2.4090    0.7720 C   0  0  0  0  0  0  0  0  0  0  0  0
   -4.5531    2.4222   -0.3718 C   0  0  0  0  0  0  0  0  0  0  0  0
   -4.0074    3.6385   -0.8194 C   0  0  0  0  0  0  0  0  0  0  0  0
   -3.0069    3.6537   -1.8104 C   0  0  0  0  0  0  0  0  0  0  0  0
   -2.5985    2.4367   -2.3880 C   0  0  0  0  0  0  0  0  0  0  0  0
   -3.1688    1.2218   -1.9780 C   0  0  0  0  0  0  0  0  0  0  0  0
   -4.1271    1.2227   -0.9569 C   0  0  0  0  0  0  0  0  0  0  0  0
   -2.8104   -0.0638   -2.6708 C   0  0  0  0  0  0  0  0  0  0  0  0
   -1.5928   -1.0479   -1.7136 S   0  0  0  0  0  0  0  0  0  0  0  0
   -2.7207   -2.3007   -0.9650 C   0  0  0  0  0  0  0  0  0  0  0  0
   -3.2618   -3.3241   -2.0012 C   0  0  2  0  0  0  0  0  0  0  0  0
   -4.5516   -2.8958   -2.5699 N   0  0  0  0  0  0  0  0  0  0  0  0
   -5.7028   -2.4287   -1.8409 C   0  0  0  0  0  0  0  0  0  0  0  0
   -6.4140   -1.5382   -2.3773 O   0  0  0  0  0  0  0  0  0  0  0  0
   -6.1496   -3.0409   -0.5230 C   0  0  1  0  0  0  0  0  0  0  0  0
   -6.0465   -2.0946    0.6837 C   0  0  0  0  0  0  0  0  0  0  0  0
   -7.4861   -3.6466   -0.6447 N   0  0  0  0  0  0  0  0  0  0  0  0
   -8.7738   -2.9952   -0.6760 C   0  0  0  0  0  0  0  0  0  0  0  0
   -9.8034   -3.7219   -0.6993 O   0  0  0  0  0  0  0  0  0  0  0  0
   -8.9659   -1.4914   -0.7209 C   0  0  1  0  0  0  0  0  0  0  0  0
   -9.6404   -1.0928   -2.0386 C   0  0  0  0  0  0  0  0  0  0  0  0
   -9.7992   -1.0541    0.4062 N   0  0  0  0  0  0  0  0  0  0  0  0
   -9.8381    0.3177    0.8307 C   0  0  0  0  0  0  0  0  0  0  0  0
  -10.9552    0.8573    1.0348 O   0  0  0  0  0  0  0  0  0  0  0  0
   -3.3757   -4.7566   -1.5286 C   0  0  0  0  0  0  0  0  0  0  0  0
   -3.7821   -5.6299   -2.3441 O   0  0  0  0  0  0  0  0  0  0  0  0
   -3.0795   -5.1507   -0.1859 N   0  0  0  0  0  0  0  0  0  0  0  0
   -1.7573   -5.6831    0.1569 C   0  0  2  0  0  0  0  0  0  0  0  0
   -1.6759   -7.1608   -0.2467 C   0  0  0  0  0  0  0  0  0  0  0  0
   -1.5117   -5.5268    1.6396 C   0  0  0  0  0  0  0  0  0  0  0  0
   -2.4523   -5.7627    2.4516 O   0  0  0  0  0  0  0  0  0  0  0  0
   -0.2428   -5.1023    2.1550 N   0  0  0  0  0  0  0  0  0  0  0  0
    1.0218   -5.7079    1.7222 C   0  0  2  0  0  0  0  0  0  0  0  0
    1.1860   -7.0780    2.3927 C   0  0  0  0  0  0  0  0  0  0  0  0
    2.1873   -4.8215    2.1135 C   0  0  0  0  0  0  0  0  0  0  0  0
    2.2352   -4.3734    3.2902 O   0  0  0  0  0  0  0  0  0  0  0  0
    3.2590   -4.4798    1.2138 N   0  0  0  0  0  0  0  0  0  0  0  0
    3.4431   -4.9805   -0.1586 C   0  0  2  0  0  0  0  0  0  0  0  0
    3.7237   -6.4924   -0.1713 C   0  0  0  0  0  0  0  0  0  0  0  0
    4.6016   -4.2652   -0.8139 C   0  0  0  0  0  0  0  0  0  0  0  0
    4.4156   -3.6415   -1.8899 O   0  0  0  0  0  0  0  0  0  0  0  0
    5.9158   -4.3507   -0.2359 N   0  0  0  0  0  0  0  0  0  0  0  0
    7.1194   -3.8539   -0.9163 C   0  0  2  0  0  0  0  0  0  0  0  0
    8.2874   -4.7977   -0.6199 C   0  0  0  0  0  0  0  0  0  0  0  0
    7.3756   -2.4257   -0.4861 C   0  0  0  0  0  0  0  0  0  0  0  0
    6.4051   -1.6198   -0.4667 O   0  0  0  0  0  0  0  0  0  0  0  0
    8.6955   -1.9488   -0.1556 N   0  0  0  0  0  0  0  0  0  0  0  0
    8.9579   -0.9985    0.9328 C   0  0  2  0  0  0  0  0  0  0  0  0
    8.7161   -1.6784    2.2855 C   0  0  0  0  0  0  0  0  0  0  0  0
    8.1524    0.2678    0.7655 C   0  0  0  0  0  0  0  0  0  0  0  0
    7.2431    0.5643    1.5904 O   0  0  0  0  0  0  0  0  0  0  0  0
    8.3827    1.1281   -0.3548 N   0  0  0  0  0  0  0  0  0  0  0  0
    9.2660    2.2996   -0.3015 C   0  0  2  0  0  0  0  0  0  0  0  0
   10.7146    1.8896   -0.5881 C   0  0  0  0  0  0  0  0  0  0  0  0
    9.1447    3.0248    1.0245 C   0  0  0  0  0  0  0  0  0  0  0  0
    9.7969    2.6050    2.0213 O   0  0  0  0  0  0  0  0  0  0  0  0
    8.2896    4.1640    1.1965 N   0  0  0  0  0  0  0  0  0  0  0  0
    7.1397    4.4774    0.3376 C   0  0  2  0  0  0  0  0  0  0  0  0
    7.4891    5.6841   -0.5371 C   0  0  0  0  0  0  0  0  0  0  0  0
    5.9106    4.7380    1.1813 C   0  0  0  0  0  0  0  0  0  0  0  0
    5.9718    4.6657    2.4383 O   0  0  0  0  0  0  0  0  0  0  0  0
    4.6423    4.9889    0.5627 N   0  0  0  0  0  0  0  0  0  0  0  0
    4.1782    6.3584    0.3439 C   0  0  2  0  0  0  0  0  0  0  0  0
    3.7643    7.0100    1.6692 C   0  0  0  0  0  0  0  0  0  0  0  0
    3.0364    6.3728   -0.6403 C   0  0  0  0  0  0  0  0  0  0  0  0
    3.2208    6.8513   -1.7939 O   0  0  0  0  0  0  0  0  0  0  0  0
    1.7349    5.8886   -0.2619 N   0  0  0  0  0  0  0  0  0  0  0  0
    0.5154    6.2978   -0.9728 C   0  0  2  0  0  0  0  0  0  0  0  0
    0.3886    7.8028   -0.9380 C   0  0  0  0  0  0  0  0  0  0  0  0
    0.1365    8.5353   -2.1360 N   0  0  0  0  0  0  0  0  0  0  0  0
    0.4915    8.4163    0.1573 O   0  0  0  0  0  0  0  0  0  0  0  0
   -0.7218    5.6335   -0.3402 C   0  0  0  0  0  0  0  0  0  0  0  0
   -2.2863    6.2452   -1.0779 S   0  0  0  0  0  0  0  0  0  0  0  0
   -2.4657    4.9506   -2.3604 C   0  0  0  0  0  0  0  0  0  0  0  0
   -9.0966    3.0405    4.6861 H   0  0  0  0  0  0  0  0  0  0  0  0
  -10.7715    3.5512    4.2393 H   0  0  0  0  0  0  0  0  0  0  0  0
   -9.3675    4.6463    3.9065 H   0  0  0  0  0  0  0  0  0  0  0  0
   -8.1082    1.5253    3.1838 H   0  0  0  0  0  0  0  0  0  0  0  0
   -7.7630    0.3370    1.2716 H   0  0  0  0  0  0  0  0  0  0  0  0
   -9.0566    2.4265   -0.5357 H   0  0  0  0  0  0  0  0  0  0  0  0
   -7.6640    1.3603   -0.8586 H   0  0  0  0  0  0  0  0  0  0  0  0
   -5.7734    1.3805    1.0881 H   0  0  0  0  0  0  0  0  0  0  0  0
   -5.0464    2.8957    1.6453 H   0  0  0  0  0  0  0  0  0  0  0  0
   -4.3635    4.5660   -0.3897 H   0  0  0  0  0  0  0  0  0  0  0  0
   -1.8633    2.4422   -3.1832 H   0  0  0  0  0  0  0  0  0  0  0  0
   -4.5514    0.2886   -0.6282 H   0  0  0  0  0  0  0  0  0  0  0  0
   -2.3577    0.1542   -3.6618 H   0  0  0  0  0  0  0  0  0  0  0  0
   -3.7358   -0.6224   -2.8807 H   0  0  0  0  0  0  0  0  0  0  0  0
   -3.5306   -1.7862   -0.4179 H   0  0  0  0  0  0  0  0  0  0  0  0
   -2.1112   -2.8229   -0.2008 H   0  0  0  0  0  0  0  0  0  0  0  0
   -2.5221   -3.3644   -2.8323 H   0  0  0  0  0  0  0  0  0  0  0  0
   -4.5927   -2.8103   -3.6079 H   0  0  0  0  0  0  0  0  0  0  0  0
   -5.4603   -3.8752   -0.2965 H   0  0  0  0  0  0  0  0  0  0  0  0
   -6.0647   -1.0321    0.3799 H   0  0  0  0  0  0  0  0  0  0  0  0
   -5.0943   -2.2665    1.2319 H   0  0  0  0  0  0  0  0  0  0  0  0
   -6.8720   -2.2723    1.4058 H   0  0  0  0  0  0  0  0  0  0  0  0
   -7.5072   -4.6929   -0.6747 H   0  0  0  0  0  0  0  0  0  0  0  0
   -8.0013   -0.9716   -0.6742 H   0  0  0  0  0  0  0  0  0  0  0  0
  -10.6646   -1.5177   -2.1012 H   0  0  0  0  0  0  0  0  0  0  0  0
   -9.7151    0.0136   -2.1060 H   0  0  0  0  0  0  0  0  0  0  0  0
   -9.0466   -1.4588   -2.9058 H   0  0  0  0  0  0  0  0  0  0  0  0
  -10.6338   -1.6410    0.6482 H   0  0  0  0  0  0  0  0  0  0  0  0
   -3.8940   -5.5119    0.3625 H   0  0  0  0  0  0  0  0  0  0  0  0
   -0.9808   -5.1173   -0.4046 H   0  0  0  0  0  0  0  0  0  0  0  0
   -1.8999   -7.2756   -1.3287 H   0  0  0  0  0  0  0  0  0  0  0  0
   -2.4031   -7.7682    0.3337 H   0  0  0  0  0  0  0  0  0  0  0  0
   -0.6528   -7.5542   -0.0761 H   0  0  0  0  0  0  0  0  0  0  0  0
   -0.2666   -4.6770    3.1110 H   0  0  0  0  0  0  0  0  0  0  0  0
    1.0032   -5.8453    0.6232 H   0  0  0  0  0  0  0  0  0  0  0  0
    0.3775   -7.7641    2.0626 H   0  0  0  0  0  0  0  0  0  0  0  0
    2.1622   -7.5381    2.1275 H   0  0  0  0  0  0  0  0  0  0  0  0
    1.1293   -6.9794    3.5006 H   0  0  0  0  0  0  0  0  0  0  0  0
    3.9594   -3.8009    1.5864 H   0  0  0  0  0  0  0  0  0  0  0  0
    2.5240   -4.7748   -0.7473 H   0  0  0  0  0  0  0  0  0  0  0  0
    4.1836   -6.7965   -1.1377 H   0  0  0  0  0  0  0  0  0  0  0  0
    2.7876   -7.0730   -0.0766 H   0  0  0  0  0  0  0  0  0  0  0  0
    4.4134   -6.7722    0.6517 H   0  0  0  0  0  0  0  0  0  0  0  0
    6.0226   -4.8161    0.6935 H   0  0  0  0  0  0  0  0  0  0  0  0
    6.9535   -3.8632   -2.0151 H   0  0  0  0  0  0  0  0  0  0  0  0
    9.1512   -4.5766   -1.2808 H   0  0  0  0  0  0  0  0  0  0  0  0
    8.5985   -4.7090    0.4473 H   0  0  0  0  0  0  0  0  0  0  0  0
    7.9793   -5.8498   -0.8091 H   0  0  0  0  0  0  0  0  0  0  0  0
    9.5242   -2.4243   -0.5749 H   0  0  0  0  0  0  0  0  0  0  0  0
   10.0335   -0.7225    0.9038 H   0  0  0  0  0  0  0  0  0  0  0  0
    8.9488   -0.9755    3.1149 H   0  0  0  0  0  0  0  0  0  0  0  0
    9.3760   -2.5672    2.3849 H   0  0  0  0  0  0  0  0  0  0  0  0
    7.6602   -2.0144    2.3793 H   0  0  0  0  0  0  0  0  0  0  0  0
    7.7045    1.0673   -1.1462 H   0  0  0  0  0  0  0  0  0  0  0  0
    8.9741    2.9940   -1.1191 H   0  0  0  0  0  0  0  0  0  0  0  0
   10.7684    1.3710   -1.5700 H   0  0  0  0  0  0  0  0  0  0  0  0
   11.3620    2.7915   -0.6310 H   0  0  0  0  0  0  0  0  0  0  0  0
   11.1038    1.2089    0.1945 H   0  0  0  0  0  0  0  0  0  0  0  0
    8.5039    4.8075    1.9913 H   0  0  0  0  0  0  0  0  0  0  0  0
    6.9019    3.6173   -0.3244 H   0  0  0  0  0  0  0  0  0  0  0  0
    6.7060    5.8422   -1.3093 H   0  0  0  0  0  0  0  0  0  0  0  0
    7.5858    6.5994    0.0821 H   0  0  0  0  0  0  0  0  0  0  0  0
    8.4495    5.5046   -1.0631 H   0  0  0  0  0  0  0  0  0  0  0  0
    3.9227    4.2375    0.6820 H   0  0  0  0  0  0  0  0  0  0  0  0
    5.0093    6.9621   -0.0808 H   0  0  0  0  0  0  0  0  0  0  0  0
    4.6483    7.1272    2.3328 H   0  0  0  0  0  0  0  0  0  0  0  0
    3.3385    8.0217    1.4818 H   0  0  0  0  0  0  0  0  0  0  0  0
    3.0113    6.3912    2.1985 H   0  0  0  0  0  0  0  0  0  0  0  0
    1.6508    5.2998    0.5984 H   0  0  0  0  0  0  0  0  0  0  0  0
    0.5860    5.9529   -2.0271 H   0  0  0  0  0  0  0  0  0  0  0  0
    0.0753    8.0425   -3.0558 H   0  0  0  0  0  0  0  0  0  0  0  0
   -0.0181    9.5687   -2.1017 H   0  0  0  0  0  0  0  0  0  0  0  0
   -0.7526    5.8672    0.7462 H   0  0  0  0  0  0  0  0  0  0  0  0
   -0.6495    4.5291   -0.4365 H   0  0  0  0  0  0  0  0  0  0  0  0
   -1.4870    4.7955   -2.8629 H   0  0  0  0  0  0  0  0  0  0  0  0
   -3.1790    5.3256   -3.1272 H   0  0  0  0  0  0  0  0  0  0  0  0
  1  2  1  0
  2  3  2  0
  2  4  1  0
  4  5  1  0
  5  6  1  0
  6  7  1  0
  7  8  1  0
  8  9  1  0
  9 10  2  0
 10 11  1  0
 11 12  2  0
 12 13  1  0
 13 14  2  0
 13 15  1  0
 15 16  1  0
 16 17  1  0
 17 18  1  0
 18 19  1  0
 19 20  1  0
 20 21  2  0
 20 22  1  0
 22 23  1  0
 22 24  1  0
 24 25  1  0
 25 26  2  0
 25 27  1  0
 27 28  1  0
 27 29  1  0
 29 30  1  0
 30 31  2  0
 18 32  1  0
 32 33  2  0
 32 34  1  0
 34 35  1  0
 35 36  1  0
 35 37  1  0
 37 38  2  0
 37 39  1  0
 39 40  1  0
 40 41  1  0
 40 42  1  0
 42 43  2  0
 42 44  1  0
 44 45  1  0
 45 46  1  0
 45 47  1  0
 47 48  2  0
 47 49  1  0
 49 50  1  0
 50 51  1  0
 50 52  1  0
 52 53  2  0
 52 54  1  0
 54 55  1  0
 55 56  1  0
 55 57  1  0
 57 58  2  0
 57 59  1  0
 59 60  1  0
 60 61  1  0
 60 62  1  0
 62 63  2  0
 62 64  1  0
 64 65  1  0
 65 66  1  0
 65 67  1  0
 67 68  2  0
 67 69  1  0
 69 70  1  0
 70 71  1  0
 70 72  1  0
 72 73  2  0
 72 74  1  0
 74 75  1  0
 75 76  1  0
 76 77  1  0
 76 78  2  0
 75 79  1  0
 79 80  1  0
 80 81  1  0
 30  5  1  0
 14  9  1  0
 81 11  1  0
  1 82  1  0
  1 83  1  0
  1 84  1  0
  4 85  1  0
  5 86  1  1
  6 87  1  0
  6 88  1  0
  8 89  1  0
  8 90  1  0
 10 91  1  0
 12 92  1  0
 14 93  1  0
 15 94  1  0
 15 95  1  0
 17 96  1  0
 17 97  1  0
 18 98  1  6
 19 99  1  0
 22100  1  1
 23101  1  0
 23102  1  0
 23103  1  0
 24104  1  0
 27105  1  1
 28106  1  0
 28107  1  0
 28108  1  0
 29109  1  0
 34110  1  0
 35111  1  6
 36112  1  0
 36113  1  0
 36114  1  0
 39115  1  0
 40116  1  6
 41117  1  0
 41118  1  0
 41119  1  0
 44120  1  0
 45121  1  6
 46122  1  0
 46123  1  0
 46124  1  0
 49125  1  0
 50126  1  6
 51127  1  0
 51128  1  0
 51129  1  0
 54130  1  0
 55131  1  1
 56132  1  0
 56133  1  0
 56134  1  0
 59135  1  0
 60136  1  6
 61137  1  0
 61138  1  0
 61139  1  0
 64140  1  0
 65141  1  6
 66142  1  0
 66143  1  0
 66144  1  0
 69145  1  0
 70146  1  6
 71147  1  0
 71148  1  0
 71149  1  0
 74150  1  0
 75151  1  6
 77152  1  0
 77153  1  0
 79154  1  0
 79155  1  0
 81156  1  0
 81157  1  0
M  END
