
     RDKit          3D

117119  0  0  0  0  0  0  0  0999 V2000
    9.8198    1.7397    1.7930 C   0  0  0  0  0  0  0  0  0  0  0  0
    8.5574    1.2606    1.1690 C   0  0  0  0  0  0  0  0  0  0  0  0
    8.4869    1.1712   -0.0815 O   0  0  0  0  0  0  0  0  0  0  0  0
    7.4198    0.9469    1.9927 N   0  0  0  0  0  0  0  0  0  0  0  0
    6.1786    0.3295    1.4973 C   0  0  1  0  0  0  0  0  0  0  0  0
    5.4872    1.2114    0.4496 C   0  0  0  0  0  0  0  0  0  0  0  0
    5.2898    2.9363    1.0452 S   0  0  0  0  0  0  0  0  0  0  0  0
    4.6838    3.6509   -0.5259 C   0  0  0  0  0  0  0  0  0  0  0  0
    3.2349    3.3190   -0.7279 C   0  0  0  0  0  0  0  0  0  0  0  0
    2.8690    2.1852   -1.4651 C   0  0  0  0  0  0  0  0  0  0  0  0
    1.5252    1.7652   -1.5333 C   0  0  0  0  0  0  0  0  0  0  0  0
    0.5375    2.5972   -0.9887 C   0  0  0  0  0  0  0  0  0  0  0  0
    0.8870    3.7693   -0.3006 C   0  0  0  0  0  0  0  0  0  0  0  0
    2.2371    4.1020   -0.1285 C   0  0  0  0  0  0  0  0  0  0  0  0
   -0.1846    4.6596    0.2537 C   0  0  0  0  0  0  0  0  0  0  0  0
   -0.6917    4.0698    1.9162 S   0  0  0  0  0  0  0  0  0  0  0  0
   -2.4693    3.7866    1.5270 C   0  0  0  0  0  0  0  0  0  0  0  0
   -3.2757    5.1092    1.4590 C   0  0  1  0  0  0  0  0  0  0  0  0
   -3.6063    5.5258    0.0438 C   0  0  0  0  0  0  0  0  0  0  0  0
   -3.0021    6.6815   -0.5373 N   0  0  0  0  0  0  0  0  0  0  0  0
   -4.4181    4.8615   -0.6427 O   0  0  0  0  0  0  0  0  0  0  0  0
   -4.4947    5.0708    2.2844 N   0  0  0  0  0  0  0  0  0  0  0  0
   -5.6999    4.3199    2.0150 C   0  0  0  0  0  0  0  0  0  0  0  0
   -6.7996    4.8243    2.3659 O   0  0  0  0  0  0  0  0  0  0  0  0
   -5.6836    2.8895    1.5119 C   0  0  1  0  0  0  0  0  0  0  0  0
   -5.7669    1.9559    2.7230 C   0  0  0  0  0  0  0  0  0  0  0  0
   -6.7982    2.6266    0.5891 N   0  0  0  0  0  0  0  0  0  0  0  0
   -6.9689    1.4052   -0.1613 C   0  0  0  0  0  0  0  0  0  0  0  0
   -8.1269    0.9235   -0.2614 O   0  0  0  0  0  0  0  0  0  0  0  0
   -5.8483    0.7132   -0.9116 C   0  0  1  0  0  0  0  0  0  0  0  0
   -5.0667    1.6591   -1.8267 C   0  0  0  0  0  0  0  0  0  0  0  0
   -4.9435    0.0182    0.0029 N   0  0  0  0  0  0  0  0  0  0  0  0
   -5.1531   -1.3313    0.4371 C   0  0  0  0  0  0  0  0  0  0  0  0
   -5.0390   -1.5969    1.6652 O   0  0  0  0  0  0  0  0  0  0  0  0
   -5.4827   -2.4462   -0.5345 C   0  0  1  0  0  0  0  0  0  0  0  0
   -4.6462   -2.3951   -1.8199 C   0  0  0  0  0  0  0  0  0  0  0  0
   -5.3610   -3.7672    0.1009 N   0  0  0  0  0  0  0  0  0  0  0  0
   -4.1479   -4.4349    0.5116 C   0  0  0  0  0  0  0  0  0  0  0  0
   -4.2018   -5.6707    0.7572 O   0  0  0  0  0  0  0  0  0  0  0  0
   -2.8282   -3.7237    0.6918 C   0  0  1  0  0  0  0  0  0  0  0  0
   -2.3497   -3.8331    2.1484 C   0  0  0  0  0  0  0  0  0  0  0  0
   -1.8464   -4.2610   -0.2537 N   0  0  0  0  0  0  0  0  0  0  0  0
   -0.8409   -5.2167    0.0886 C   0  0  0  0  0  0  0  0  0  0  0  0
   -1.1775   -6.4010    0.3638 O   0  0  0  0  0  0  0  0  0  0  0  0
    0.6104   -4.8442   -0.0156 C   0  0  1  0  0  0  0  0  0  0  0  0
    1.3626   -5.2690    1.2468 C   0  0  0  0  0  0  0  0  0  0  0  0
    1.1988   -5.4721   -1.1995 N   0  0  0  0  0  0  0  0  0  0  0  0
    1.6905   -4.7530   -2.3483 C   0  0  0  0  0  0  0  0  0  0  0  0
    1.5292   -5.2608   -3.4923 O   0  0  0  0  0  0  0  0  0  0  0  0
    2.4313   -3.4380   -2.2462 C   0  0  1  0  0  0  0  0  0  0  0  0
    1.5097   -2.2440   -2.5332 C   0  0  0  0  0  0  0  0  0  0  0  0
    2.4832   -0.7049   -2.4178 S   0  0  0  0  0  0  0  0  0  0  0  0
    1.1061    0.4836   -2.2317 C   0  0  0  0  0  0  0  0  0  0  0  0
    3.0932   -3.2906   -0.9410 N   0  0  0  0  0  0  0  0  0  0  0  0
    4.4127   -3.8144   -0.7507 C   0  0  0  0  0  0  0  0  0  0  0  0
    4.6012   -5.0563   -0.8574 O   0  0  0  0  0  0  0  0  0  0  0  0
    5.6043   -2.9066   -0.5633 C   0  0  1  0  0  0  0  0  0  0  0  0
    6.0225   -2.3142   -1.9123 C   0  0  0  0  0  0  0  0  0  0  0  0
    5.3559   -1.8358    0.4114 N   0  0  0  0  0  0  0  0  0  0  0  0
    6.4406   -1.0514    0.9351 C   0  0  0  0  0  0  0  0  0  0  0  0
    7.6080   -1.5344    0.9491 O   0  0  0  0  0  0  0  0  0  0  0  0
    9.6357    2.6311    2.4023 H   0  0  0  0  0  0  0  0  0  0  0  0
   10.5670    1.9999    1.0172 H   0  0  0  0  0  0  0  0  0  0  0  0
   10.2355    0.9420    2.4351 H   0  0  0  0  0  0  0  0  0  0  0  0
    7.4982    1.1280    3.0244 H   0  0  0  0  0  0  0  0  0  0  0  0
    5.4828    0.2099    2.3563 H   0  0  0  0  0  0  0  0  0  0  0  0
    4.4726    0.8077    0.2393 H   0  0  0  0  0  0  0  0  0  0  0  0
    6.0450    1.2027   -0.4993 H   0  0  0  0  0  0  0  0  0  0  0  0
    5.3046    3.3046   -1.3713 H   0  0  0  0  0  0  0  0  0  0  0  0
    4.8089    4.7543   -0.4597 H   0  0  0  0  0  0  0  0  0  0  0  0
    3.6518    1.6158   -1.9498 H   0  0  0  0  0  0  0  0  0  0  0  0
   -0.5151    2.3258   -1.0700 H   0  0  0  0  0  0  0  0  0  0  0  0
    2.5120    4.9737    0.4527 H   0  0  0  0  0  0  0  0  0  0  0  0
   -1.0402    4.7021   -0.4596 H   0  0  0  0  0  0  0  0  0  0  0  0
    0.2072    5.6999    0.3515 H   0  0  0  0  0  0  0  0  0  0  0  0
   -2.5598    3.1829    0.5912 H   0  0  0  0  0  0  0  0  0  0  0  0
   -2.8548    3.1617    2.3617 H   0  0  0  0  0  0  0  0  0  0  0  0
   -2.6369    5.9111    1.8859 H   0  0  0  0  0  0  0  0  0  0  0  0
   -3.2747    7.0023   -1.4927 H   0  0  0  0  0  0  0  0  0  0  0  0
   -2.2791    7.2301   -0.0321 H   0  0  0  0  0  0  0  0  0  0  0  0
   -4.5750    5.8139    3.0179 H   0  0  0  0  0  0  0  0  0  0  0  0
   -4.7470    2.7057    0.9784 H   0  0  0  0  0  0  0  0  0  0  0  0
   -5.7080    0.8941    2.4098 H   0  0  0  0  0  0  0  0  0  0  0  0
   -4.9221    2.1616    3.4203 H   0  0  0  0  0  0  0  0  0  0  0  0
   -6.7243    2.1118    3.2734 H   0  0  0  0  0  0  0  0  0  0  0  0
   -7.6619    3.2109    0.6870 H   0  0  0  0  0  0  0  0  0  0  0  0
   -6.3268   -0.0280   -1.5810 H   0  0  0  0  0  0  0  0  0  0  0  0
   -5.7631    2.2198   -2.4774 H   0  0  0  0  0  0  0  0  0  0  0  0
   -4.4525    2.3756   -1.2506 H   0  0  0  0  0  0  0  0  0  0  0  0
   -4.3828    1.0663   -2.4634 H   0  0  0  0  0  0  0  0  0  0  0  0
   -4.2312    0.5753    0.5257 H   0  0  0  0  0  0  0  0  0  0  0  0
   -6.5467   -2.3161   -0.8250 H   0  0  0  0  0  0  0  0  0  0  0  0
   -4.7016   -3.3660   -2.3515 H   0  0  0  0  0  0  0  0  0  0  0  0
   -5.0261   -1.6210   -2.5133 H   0  0  0  0  0  0  0  0  0  0  0  0
   -3.5801   -2.1609   -1.6167 H   0  0  0  0  0  0  0  0  0  0  0  0
   -6.2429   -4.3238    0.1801 H   0  0  0  0  0  0  0  0  0  0  0  0
   -2.9217   -2.6425    0.4826 H   0  0  0  0  0  0  0  0  0  0  0  0
   -1.3669   -3.3234    2.2625 H   0  0  0  0  0  0  0  0  0  0  0  0
   -2.2377   -4.8950    2.4598 H   0  0  0  0  0  0  0  0  0  0  0  0
   -3.0764   -3.3341    2.8274 H   0  0  0  0  0  0  0  0  0  0  0  0
   -1.8830   -3.9353   -1.2493 H   0  0  0  0  0  0  0  0  0  0  0  0
    0.6650   -3.7425   -0.0919 H   0  0  0  0  0  0  0  0  0  0  0  0
    0.9380   -4.7344    2.1175 H   0  0  0  0  0  0  0  0  0  0  0  0
    2.4298   -4.9977    1.1555 H   0  0  0  0  0  0  0  0  0  0  0  0
    1.2864   -6.3664    1.4131 H   0  0  0  0  0  0  0  0  0  0  0  0
    1.1288   -6.5134   -1.2929 H   0  0  0  0  0  0  0  0  0  0  0  0
    3.2212   -3.4449   -3.0361 H   0  0  0  0  0  0  0  0  0  0  0  0
    0.6532   -2.2374   -1.8321 H   0  0  0  0  0  0  0  0  0  0  0  0
    1.1331   -2.3293   -3.5676 H   0  0  0  0  0  0  0  0  0  0  0  0
    0.7075    0.7102   -3.2414 H   0  0  0  0  0  0  0  0  0  0  0  0
    0.3028    0.0138   -1.6384 H   0  0  0  0  0  0  0  0  0  0  0  0
    2.7590   -2.5350   -0.3118 H   0  0  0  0  0  0  0  0  0  0  0  0
    6.4499   -3.5307   -0.1916 H   0  0  0  0  0  0  0  0  0  0  0  0
    6.9654   -1.7420   -1.8069 H   0  0  0  0  0  0  0  0  0  0  0  0
    6.1864   -3.1243   -2.6568 H   0  0  0  0  0  0  0  0  0  0  0  0
    5.2397   -1.6267   -2.2953 H   0  0  0  0  0  0  0  0  0  0  0  0
    4.3958   -1.4747    0.5615 H   0  0  0  0  0  0  0  0  0  0  0  0
  1  2  1  0
  2  3  2  0
  2  4  1  0
  4  5  1  0
  5  6  1  0
  6  7  1  0
  7  8  1  0
  8  9  1  0
  9 10  1  0
 10 11  2  0
 11 12  1  0
 12 13  2  0
 13 14  1  0
 13 15  1  0
 15 16  1  0
 16 17  1  0
 17 18  1  0
 18 19  1  0
 19 20  1  0
 19 21  2  0
 18 22  1  0
 22 23  1  0
 23 24  2  0
 23 25  1  0
 25 26  1  0
 25 27  1  0
 27 28  1  0
 28 29  2  0
 28 30  1  0
 30 31  1  0
 30 32  1  0
 32 33  1  0
 33 34  2  0
 33 35  1  0
 35 36  1  0
 35 37  1  0
 37 38  1  0
 38 39  2  0
 38 40  1  0
 40 41  1  0
 40 42  1  0
 42 43  1  0
 43 44  2  0
 43 45  1  0
 45 46  1  0
 45 47  1  0
 47 48  1  0
 48 49  2  0
 48 50  1  0
 50 51  1  0
 51 52  1  0
 52 53  1  0
 50 54  1  0
 54 55  1  0
 55 56  2  0
 55 57  1  0
 57 58  1  0
 57 59  1  0
 59 60  1  0
 60 61  2  0
 60  5  1  0
 14  9  2  0
 53 11  1  0
  1 62  1  0
  1 63  1  0
  1 64  1  0
  4 65  1  0
  5 66  1  1
  6 67  1  0
  6 68  1  0
  8 69  1  0
  8 70  1  0
 10 71  1  0
 12 72  1  0
 14 73  1  0
 15 74  1  0
 15 75  1  0
 17 76  1  0
 17 77  1  0
 18 78  1  1
 20 79  1  0
 20 80  1  0
 22 81  1  0
 25 82  1  6
 26 83  1  0
 26 84  1  0
 26 85  1  0
 27 86  1  0
 30 87  1  6
 31 88  1  0
 31 89  1  0
 31 90  1  0
 32 91  1  0
 35 92  1  6
 36 93  1  0
 36 94  1  0
 36 95  1  0
 37 96  1  0
 40 97  1  6
 41 98  1  0
 41 99  1  0
 41100  1  0
 42101  1  0
 45102  1  6
 46103  1  0
 46104  1  0
 46105  1  0
 47106  1  0
 50107  1  6
 51108  1  0
 51109  1  0
 53110  1  0
 53111  1  0
 54112  1  0
 57113  1  1
 58114  1  0
 58115  1  0
 58116  1  0
 59117  1  0
M  END
