
     RDKit          3D

117119  0  0  0  0  0  0  0  0999 V2000
    9.8724    4.7913    0.6139 C   0  0  0  0  0  0  0  0  0  0  0  0
    8.5282    4.1938    0.8856 C   0  0  0  0  0  0  0  0  0  0  0  0
    8.0633    4.2363    2.0573 O   0  0  0  0  0  0  0  0  0  0  0  0
    7.7848    3.5706   -0.1769 N   0  0  0  0  0  0  0  0  0  0  0  0
    6.3733    3.1699   -0.0906 C   0  0  2  0  0  0  0  0  0  0  0  0
    5.4869    4.3278    0.4109 C   0  0  0  0  0  0  0  0  0  0  0  0
    3.8563    4.3277   -0.4274 S   0  0  0  0  0  0  0  0  0  0  0  0
    2.9288    3.4860    0.8987 C   0  0  0  0  0  0  0  0  0  0  0  0
    1.6039    3.0297    0.3593 C   0  0  0  0  0  0  0  0  0  0  0  0
    0.4502    3.8014    0.5570 C   0  0  0  0  0  0  0  0  0  0  0  0
   -0.7982    3.3504    0.0992 C   0  0  0  0  0  0  0  0  0  0  0  0
   -0.8925    2.0892   -0.5255 C   0  0  0  0  0  0  0  0  0  0  0  0
    0.2700    1.3338   -0.7895 C   0  0  0  0  0  0  0  0  0  0  0  0
    1.5071    1.8137   -0.3332 C   0  0  0  0  0  0  0  0  0  0  0  0
    0.2532   -0.0092   -1.4891 C   0  0  0  0  0  0  0  0  0  0  0  0
   -1.3385   -0.4540   -2.2840 S   0  0  0  0  0  0  0  0  0  0  0  0
   -1.9589   -1.5853   -0.9754 C   0  0  0  0  0  0  0  0  0  0  0  0
   -1.2441   -2.9587   -0.9958 C   0  0  1  0  0  0  0  0  0  0  0  0
   -0.2337   -3.0661    0.0645 N   0  0  0  0  0  0  0  0  0  0  0  0
    0.6412   -4.1937    0.1495 C   0  0  0  0  0  0  0  0  0  0  0  0
    0.2184   -5.2646    0.6599 O   0  0  0  0  0  0  0  0  0  0  0  0
    2.0541   -4.1270   -0.3801 C   0  0  1  0  0  0  0  0  0  0  0  0
    2.0447   -3.9270   -1.8942 C   0  0  0  0  0  0  0  0  0  0  0  0
    2.7985   -3.0413    0.2604 N   0  0  0  0  0  0  0  0  0  0  0  0
    4.0259   -3.2719    0.9620 C   0  0  0  0  0  0  0  0  0  0  0  0
    4.0496   -3.1543    2.2159 O   0  0  0  0  0  0  0  0  0  0  0  0
    5.3104   -3.5763    0.2258 C   0  0  1  0  0  0  0  0  0  0  0  0
    5.4175   -5.0711   -0.0953 C   0  0  0  0  0  0  0  0  0  0  0  0
    5.4081   -2.7777   -1.0001 N   0  0  0  0  0  0  0  0  0  0  0  0
    5.5754   -1.3496   -1.0182 C   0  0  0  0  0  0  0  0  0  0  0  0
    5.2881   -0.7207   -2.0788 O   0  0  0  0  0  0  0  0  0  0  0  0
    6.1514   -0.5812    0.1510 C   0  0  1  0  0  0  0  0  0  0  0  0
    7.6821   -0.5584    0.0323 C   0  0  0  0  0  0  0  0  0  0  0  0
    5.5811    0.7731    0.1676 N   0  0  0  0  0  0  0  0  0  0  0  0
    6.2311    1.9148    0.7332 C   0  0  0  0  0  0  0  0  0  0  0  0
    6.6617    1.8645    1.9190 O   0  0  0  0  0  0  0  0  0  0  0  0
   -2.2255   -4.1058   -0.9090 C   0  0  0  0  0  0  0  0  0  0  0  0
   -2.3872   -4.8288   -1.9302 O   0  0  0  0  0  0  0  0  0  0  0  0
   -2.9002   -4.4752    0.3055 N   0  0  0  0  0  0  0  0  0  0  0  0
   -3.2008   -3.5594    1.4099 C   0  0  2  0  0  0  0  0  0  0  0  0
   -3.4065   -4.3516    2.7000 C   0  0  0  0  0  0  0  0  0  0  0  0
   -4.4245   -2.7209    1.1177 C   0  0  0  0  0  0  0  0  0  0  0  0
   -4.5678   -1.6279    1.7286 O   0  0  0  0  0  0  0  0  0  0  0  0
   -5.4241   -3.1519    0.1709 N   0  0  0  0  0  0  0  0  0  0  0  0
   -6.6771   -2.4146   -0.0525 C   0  0  2  0  0  0  0  0  0  0  0  0
   -7.5356   -3.1193   -1.1085 C   0  0  0  0  0  0  0  0  0  0  0  0
   -6.4053   -0.9986   -0.4734 C   0  0  0  0  0  0  0  0  0  0  0  0
   -5.4489   -0.7372   -1.2541 O   0  0  0  0  0  0  0  0  0  0  0  0
   -7.2266    0.0567    0.0282 N   0  0  0  0  0  0  0  0  0  0  0  0
   -6.6705    1.1041    0.8812 C   0  0  2  0  0  0  0  0  0  0  0  0
   -7.1026    0.8577    2.3319 C   0  0  0  0  0  0  0  0  0  0  0  0
   -7.0857    2.4610    0.3722 C   0  0  0  0  0  0  0  0  0  0  0  0
   -7.6713    3.2810    1.1285 O   0  0  0  0  0  0  0  0  0  0  0  0
   -6.8579    2.8136   -1.0005 N   0  0  0  0  0  0  0  0  0  0  0  0
   -5.6727    3.5379   -1.4834 C   0  0  1  0  0  0  0  0  0  0  0  0
   -6.0778    4.9026   -1.9663 C   0  0  0  0  0  0  0  0  0  0  0  0
   -6.7192    5.8319   -1.0930 N   0  0  0  0  0  0  0  0  0  0  0  0
   -5.8144    5.2467   -3.1529 O   0  0  0  0  0  0  0  0  0  0  0  0
   -4.5624    3.6474   -0.4192 C   0  0  0  0  0  0  0  0  0  0  0  0
   -3.0405    4.3780   -1.1107 S   0  0  0  0  0  0  0  0  0  0  0  0
   -2.0344    4.1447    0.4033 C   0  0  0  0  0  0  0  0  0  0  0  0
   10.6401    4.2792    1.2275 H   0  0  0  0  0  0  0  0  0  0  0  0
   10.1427    4.6924   -0.4574 H   0  0  0  0  0  0  0  0  0  0  0  0
    9.8558    5.8692    0.8733 H   0  0  0  0  0  0  0  0  0  0  0  0
    8.2481    3.4712   -1.1097 H   0  0  0  0  0  0  0  0  0  0  0  0
    6.0463    2.9172   -1.1249 H   0  0  0  0  0  0  0  0  0  0  0  0
    5.3740    4.3162    1.5198 H   0  0  0  0  0  0  0  0  0  0  0  0
    5.9618    5.2913    0.1482 H   0  0  0  0  0  0  0  0  0  0  0  0
    2.7899    4.1944    1.7411 H   0  0  0  0  0  0  0  0  0  0  0  0
    3.5003    2.6189    1.2861 H   0  0  0  0  0  0  0  0  0  0  0  0
    0.5242    4.7419    1.0821 H   0  0  0  0  0  0  0  0  0  0  0  0
   -1.8641    1.7209   -0.8039 H   0  0  0  0  0  0  0  0  0  0  0  0
    2.3940    1.2191   -0.4971 H   0  0  0  0  0  0  0  0  0  0  0  0
    0.5760   -0.7834   -0.7813 H   0  0  0  0  0  0  0  0  0  0  0  0
    1.0138    0.0166   -2.2997 H   0  0  0  0  0  0  0  0  0  0  0  0
   -3.0373   -1.7217   -1.1916 H   0  0  0  0  0  0  0  0  0  0  0  0
   -1.8940   -1.0859    0.0070 H   0  0  0  0  0  0  0  0  0  0  0  0
   -0.7167   -3.0548   -1.9719 H   0  0  0  0  0  0  0  0  0  0  0  0
   -0.1156   -2.3143    0.7782 H   0  0  0  0  0  0  0  0  0  0  0  0
    2.5361   -5.1014   -0.1601 H   0  0  0  0  0  0  0  0  0  0  0  0
    1.6782   -2.9095   -2.1580 H   0  0  0  0  0  0  0  0  0  0  0  0
    3.0717   -4.0485   -2.3017 H   0  0  0  0  0  0  0  0  0  0  0  0
    1.3916   -4.6838   -2.3862 H   0  0  0  0  0  0  0  0  0  0  0  0
    2.3935   -2.0772    0.2806 H   0  0  0  0  0  0  0  0  0  0  0  0
    6.1756   -3.3318    0.8806 H   0  0  0  0  0  0  0  0  0  0  0  0
    6.4292   -5.2884   -0.5067 H   0  0  0  0  0  0  0  0  0  0  0  0
    4.6720   -5.3814   -0.8545 H   0  0  0  0  0  0  0  0  0  0  0  0
    5.2816   -5.6752    0.8241 H   0  0  0  0  0  0  0  0  0  0  0  0
    5.2712   -3.2470   -1.9241 H   0  0  0  0  0  0  0  0  0  0  0  0
    5.8743   -1.0753    1.1048 H   0  0  0  0  0  0  0  0  0  0  0  0
    8.1326   -0.0966    0.9300 H   0  0  0  0  0  0  0  0  0  0  0  0
    7.9924    0.0161   -0.8668 H   0  0  0  0  0  0  0  0  0  0  0  0
    8.0699   -1.5908   -0.0462 H   0  0  0  0  0  0  0  0  0  0  0  0
    4.5439    0.8559    0.0375 H   0  0  0  0  0  0  0  0  0  0  0  0
   -3.3458   -5.4215    0.3190 H   0  0  0  0  0  0  0  0  0  0  0  0
   -2.3417   -2.8850    1.5783 H   0  0  0  0  0  0  0  0  0  0  0  0
   -4.2721   -5.0431    2.5968 H   0  0  0  0  0  0  0  0  0  0  0  0
   -2.5015   -4.9487    2.9261 H   0  0  0  0  0  0  0  0  0  0  0  0
   -3.5984   -3.6634    3.5535 H   0  0  0  0  0  0  0  0  0  0  0  0
   -5.3041   -4.0824   -0.2922 H   0  0  0  0  0  0  0  0  0  0  0  0
   -7.2529   -2.4017    0.9035 H   0  0  0  0  0  0  0  0  0  0  0  0
   -7.7686   -4.1555   -0.7809 H   0  0  0  0  0  0  0  0  0  0  0  0
   -8.4935   -2.5701   -1.2448 H   0  0  0  0  0  0  0  0  0  0  0  0
   -6.9981   -3.1520   -2.0816 H   0  0  0  0  0  0  0  0  0  0  0  0
   -8.2631   -0.0064   -0.0938 H   0  0  0  0  0  0  0  0  0  0  0  0
   -5.5606    1.0465    0.8646 H   0  0  0  0  0  0  0  0  0  0  0  0
   -8.2123    0.9164    2.4148 H   0  0  0  0  0  0  0  0  0  0  0  0
   -6.6471    1.6184    3.0063 H   0  0  0  0  0  0  0  0  0  0  0  0
   -6.7772   -0.1516    2.6669 H   0  0  0  0  0  0  0  0  0  0  0  0
   -7.5854    2.5385   -1.6978 H   0  0  0  0  0  0  0  0  0  0  0  0
   -5.2596    2.9583   -2.3431 H   0  0  0  0  0  0  0  0  0  0  0  0
   -7.0072    5.5459   -0.1297 H   0  0  0  0  0  0  0  0  0  0  0  0
   -6.6946    6.8566   -1.3096 H   0  0  0  0  0  0  0  0  0  0  0  0
   -4.9082    4.2681    0.4330 H   0  0  0  0  0  0  0  0  0  0  0  0
   -4.3086    2.6343   -0.0571 H   0  0  0  0  0  0  0  0  0  0  0  0
   -1.7687    5.1564    0.7829 H   0  0  0  0  0  0  0  0  0  0  0  0
   -2.5955    3.6307    1.2129 H   0  0  0  0  0  0  0  0  0  0  0  0
  1  2  1  0
  2  3  2  0
  2  4  1  0
  4  5  1  0
  5  6  1  0
  6  7  1  0
  7  8  1  0
  8  9  1  0
  9 10  2  0
 10 11  1  0
 11 12  2  0
 12 13  1  0
 13 14  2  0
 13 15  1  0
 15 16  1  0
 16 17  1  0
 17 18  1  0
 18 19  1  0
 19 20  1  0
 20 21  2  0
 20 22  1  0
 22 23  1  0
 22 24  1  0
 24 25  1  0
 25 26  2  0
 25 27  1  0
 27 28  1  0
 27 29  1  0
 29 30  1  0
 30 31  2  0
 30 32  1  0
 32 33  1  0
 32 34  1  0
 34 35  1  0
 35 36  2  0
 18 37  1  0
 37 38  2  0
 37 39  1  0
 39 40  1  0
 40 41  1  0
 40 42  1  0
 42 43  2  0
 42 44  1  0
 44 45  1  0
 45 46  1  0
 45 47  1  0
 47 48  2  0
 47 49  1  0
 49 50  1  0
 50 51  1  0
 50 52  1  0
 52 53  2  0
 52 54  1  0
 54 55  1  0
 55 56  1  0
 56 57  1  0
 56 58  2  0
 55 59  1  0
 59 60  1  0
 60 61  1  0
 35  5  1  0
 14  9  1  0
 61 11  1  0
  1 62  1  0
  1 63  1  0
  1 64  1  0
  4 65  1  0
  5 66  1  6
  6 67  1  0
  6 68  1  0
  8 69  1  0
  8 70  1  0
 10 71  1  0
 12 72  1  0
 14 73  1  0
 15 74  1  0
 15 75  1  0
 17 76  1  0
 17 77  1  0
 18 78  1  6
 19 79  1  0
 22 80  1  6
 23 81  1  0
 23 82  1  0
 23 83  1  0
 24 84  1  0
 27 85  1  1
 28 86  1  0
 28 87  1  0
 28 88  1  0
 29 89  1  0
 32 90  1  1
 33 91  1  0
 33 92  1  0
 33 93  1  0
 34 94  1  0
 39 95  1  0
 40 96  1  1
 41 97  1  0
 41 98  1  0
 41 99  1  0
 44100  1  0
 45101  1  1
 46102  1  0
 46103  1  0
 46104  1  0
 49105  1  0
 50106  1  1
 51107  1  0
 51108  1  0
 51109  1  0
 54110  1  0
 55111  1  6
 57112  1  0
 57113  1  0
 59114  1  0
 59115  1  0
 61116  1  0
 61117  1  0
M  END
