
     RDKit          3D

117119  0  0  0  0  0  0  0  0999 V2000
    9.0140    4.7232    1.1682 C   0  0  0  0  0  0  0  0  0  0  0  0
    8.2738    3.4499    0.9157 C   0  0  0  0  0  0  0  0  0  0  0  0
    8.8792    2.3534    1.0642 O   0  0  0  0  0  0  0  0  0  0  0  0
    6.9007    3.4751    0.4910 N   0  0  0  0  0  0  0  0  0  0  0  0
    6.1113    2.2567    0.2734 C   0  0  1  0  0  0  0  0  0  0  0  0
    4.8552    2.2578    1.1665 C   0  0  0  0  0  0  0  0  0  0  0  0
    3.8090    3.7510    0.9748 S   0  0  0  0  0  0  0  0  0  0  0  0
    2.7204    3.1344   -0.3703 C   0  0  0  0  0  0  0  0  0  0  0  0
    1.2901    3.1679    0.0939 C   0  0  0  0  0  0  0  0  0  0  0  0
    0.4012    4.1292   -0.4113 C   0  0  0  0  0  0  0  0  0  0  0  0
   -0.9213    4.1810    0.0490 C   0  0  0  0  0  0  0  0  0  0  0  0
   -1.3566    3.2411    0.9949 C   0  0  0  0  0  0  0  0  0  0  0  0
   -0.4975    2.2404    1.4669 C   0  0  0  0  0  0  0  0  0  0  0  0
    0.8409    2.2407    1.0474 C   0  0  0  0  0  0  0  0  0  0  0  0
   -0.9999    1.2918    2.5263 C   0  0  0  0  0  0  0  0  0  0  0  0
   -0.3581   -0.4181    2.3796 S   0  0  0  0  0  0  0  0  0  0  0  0
   -0.8263   -0.7378    0.6268 C   0  0  0  0  0  0  0  0  0  0  0  0
   -0.9455   -2.2497    0.2910 C   0  0  1  0  0  0  0  0  0  0  0  0
    0.1155   -3.0474    0.9244 N   0  0  0  0  0  0  0  0  0  0  0  0
    0.8429   -4.0447    0.2035 C   0  0  0  0  0  0  0  0  0  0  0  0
    0.2110   -4.9147   -0.4637 O   0  0  0  0  0  0  0  0  0  0  0  0
    2.3481   -4.1143    0.3396 C   0  0  1  0  0  0  0  0  0  0  0  0
    2.7328   -4.7393    1.6853 C   0  0  0  0  0  0  0  0  0  0  0  0
    2.9555   -4.8832   -0.7614 N   0  0  0  0  0  0  0  0  0  0  0  0
    4.3292   -4.7879   -1.1812 C   0  0  0  0  0  0  0  0  0  0  0  0
    4.7471   -5.6067   -2.0465 O   0  0  0  0  0  0  0  0  0  0  0  0
    5.2944   -3.7458   -0.6578 C   0  0  1  0  0  0  0  0  0  0  0  0
    6.4818   -4.4160    0.0373 C   0  0  0  0  0  0  0  0  0  0  0  0
    5.7686   -2.9252   -1.7711 N   0  0  0  0  0  0  0  0  0  0  0  0
    5.3389   -1.5724   -1.9340 C   0  0  0  0  0  0  0  0  0  0  0  0
    4.2954   -1.3408   -2.6038 O   0  0  0  0  0  0  0  0  0  0  0  0
    6.0739   -0.4421   -1.2455 C   0  0  1  0  0  0  0  0  0  0  0  0
    7.5894   -0.6646   -1.2964 C   0  0  0  0  0  0  0  0  0  0  0  0
    5.7596    0.8484   -1.8777 N   0  0  0  0  0  0  0  0  0  0  0  0
    5.7656    2.1145   -1.1941 C   0  0  0  0  0  0  0  0  0  0  0  0
    5.4508    3.1417   -1.8473 O   0  0  0  0  0  0  0  0  0  0  0  0
   -2.2945   -2.8227    0.6479 C   0  0  0  0  0  0  0  0  0  0  0  0
   -2.7054   -2.7754    1.8437 O   0  0  0  0  0  0  0  0  0  0  0  0
   -3.0925   -3.4423   -0.3697 N   0  0  0  0  0  0  0  0  0  0  0  0
   -4.1513   -4.4144   -0.0737 C   0  0  2  0  0  0  0  0  0  0  0  0
   -3.5361   -5.8098    0.0983 C   0  0  0  0  0  0  0  0  0  0  0  0
   -5.1792   -4.3783   -1.1891 C   0  0  0  0  0  0  0  0  0  0  0  0
   -5.3526   -5.3867   -1.9249 O   0  0  0  0  0  0  0  0  0  0  0  0
   -5.9444   -3.1936   -1.4649 N   0  0  0  0  0  0  0  0  0  0  0  0
   -6.2760   -2.1940   -0.4438 C   0  0  2  0  0  0  0  0  0  0  0  0
   -7.4597   -2.6814    0.3975 C   0  0  0  0  0  0  0  0  0  0  0  0
   -6.6073   -0.8769   -1.0913 C   0  0  0  0  0  0  0  0  0  0  0  0
   -7.6039   -0.7848   -1.8574 O   0  0  0  0  0  0  0  0  0  0  0  0
   -5.7874    0.2701   -0.8276 N   0  0  0  0  0  0  0  0  0  0  0  0
   -6.3184    1.5767   -0.4042 C   0  0  2  0  0  0  0  0  0  0  0  0
   -7.4081    1.4233    0.6633 C   0  0  0  0  0  0  0  0  0  0  0  0
   -6.8175    2.3804   -1.5864 C   0  0  0  0  0  0  0  0  0  0  0  0
   -7.7573    1.9066   -2.2851 O   0  0  0  0  0  0  0  0  0  0  0  0
   -6.3051    3.6845   -1.9321 N   0  0  0  0  0  0  0  0  0  0  0  0
   -5.1879    4.3960   -1.2984 C   0  0  1  0  0  0  0  0  0  0  0  0
   -5.5140    4.7310    0.1386 C   0  0  0  0  0  0  0  0  0  0  0  0
   -6.6462    5.5529    0.4387 N   0  0  0  0  0  0  0  0  0  0  0  0
   -4.7938    4.3161    1.0863 O   0  0  0  0  0  0  0  0  0  0  0  0
   -3.8568    3.6396   -1.5259 C   0  0  0  0  0  0  0  0  0  0  0  0
   -2.5239    4.7595   -2.1077 S   0  0  0  0  0  0  0  0  0  0  0  0
   -1.8638    5.2357   -0.4683 C   0  0  0  0  0  0  0  0  0  0  0  0
    9.3447    4.7453    2.2318 H   0  0  0  0  0  0  0  0  0  0  0  0
    8.3625    5.6001    0.9698 H   0  0  0  0  0  0  0  0  0  0  0  0
    9.9030    4.7734    0.4956 H   0  0  0  0  0  0  0  0  0  0  0  0
    6.4599    4.4026    0.2973 H   0  0  0  0  0  0  0  0  0  0  0  0
    6.7105    1.3819    0.5914 H   0  0  0  0  0  0  0  0  0  0  0  0
    4.2595    1.3314    1.0100 H   0  0  0  0  0  0  0  0  0  0  0  0
    5.1861    2.2379    2.2285 H   0  0  0  0  0  0  0  0  0  0  0  0
    2.8576    3.8024   -1.2476 H   0  0  0  0  0  0  0  0  0  0  0  0
    2.9677    2.1034   -0.6874 H   0  0  0  0  0  0  0  0  0  0  0  0
    0.7386    4.8407   -1.1481 H   0  0  0  0  0  0  0  0  0  0  0  0
   -2.3684    3.2948    1.3809 H   0  0  0  0  0  0  0  0  0  0  0  0
    1.5403    1.5153    1.4446 H   0  0  0  0  0  0  0  0  0  0  0  0
   -2.1115    1.2460    2.5269 H   0  0  0  0  0  0  0  0  0  0  0  0
   -0.6785    1.6825    3.5124 H   0  0  0  0  0  0  0  0  0  0  0  0
   -0.0437   -0.2956   -0.0262 H   0  0  0  0  0  0  0  0  0  0  0  0
   -1.7820   -0.2257    0.3798 H   0  0  0  0  0  0  0  0  0  0  0  0
   -0.8264   -2.3289   -0.8155 H   0  0  0  0  0  0  0  0  0  0  0  0
    0.3134   -2.9405    1.9409 H   0  0  0  0  0  0  0  0  0  0  0  0
    2.6986   -3.0599    0.2985 H   0  0  0  0  0  0  0  0  0  0  0  0
    3.8375   -4.7512    1.7922 H   0  0  0  0  0  0  0  0  0  0  0  0
    2.3571   -5.7835    1.7515 H   0  0  0  0  0  0  0  0  0  0  0  0
    2.3154   -4.1439    2.5200 H   0  0  0  0  0  0  0  0  0  0  0  0
    2.4119   -5.6836   -1.1643 H   0  0  0  0  0  0  0  0  0  0  0  0
    4.8168   -3.0901    0.0955 H   0  0  0  0  0  0  0  0  0  0  0  0
    7.1693   -3.6377    0.4410 H   0  0  0  0  0  0  0  0  0  0  0  0
    6.1362   -5.0364    0.8918 H   0  0  0  0  0  0  0  0  0  0  0  0
    7.0492   -5.0538   -0.6709 H   0  0  0  0  0  0  0  0  0  0  0  0
    6.2871   -3.3802   -2.5574 H   0  0  0  0  0  0  0  0  0  0  0  0
    5.7269   -0.4469   -0.1912 H   0  0  0  0  0  0  0  0  0  0  0  0
    7.9219   -0.8720   -2.3341 H   0  0  0  0  0  0  0  0  0  0  0  0
    8.1240    0.2392   -0.9325 H   0  0  0  0  0  0  0  0  0  0  0  0
    7.8769   -1.5217   -0.6506 H   0  0  0  0  0  0  0  0  0  0  0  0
    5.6155    0.8717   -2.9171 H   0  0  0  0  0  0  0  0  0  0  0  0
   -2.7970   -3.3298   -1.3693 H   0  0  0  0  0  0  0  0  0  0  0  0
   -4.6628   -4.1460    0.8764 H   0  0  0  0  0  0  0  0  0  0  0  0
   -3.0682   -6.1461   -0.8482 H   0  0  0  0  0  0  0  0  0  0  0  0
   -2.7591   -5.7840    0.8862 H   0  0  0  0  0  0  0  0  0  0  0  0
   -4.3152   -6.5299    0.4151 H   0  0  0  0  0  0  0  0  0  0  0  0
   -6.4887   -3.1813   -2.3649 H   0  0  0  0  0  0  0  0  0  0  0  0
   -5.4092   -2.0362    0.2326 H   0  0  0  0  0  0  0  0  0  0  0  0
   -7.7862   -1.8976    1.1156 H   0  0  0  0  0  0  0  0  0  0  0  0
   -7.1726   -3.5859    0.9755 H   0  0  0  0  0  0  0  0  0  0  0  0
   -8.3198   -2.9425   -0.2645 H   0  0  0  0  0  0  0  0  0  0  0  0
   -4.7607    0.0973   -0.6798 H   0  0  0  0  0  0  0  0  0  0  0  0
   -5.4845    2.1023    0.0925 H   0  0  0  0  0  0  0  0  0  0  0  0
   -7.6750    2.4144    1.0745 H   0  0  0  0  0  0  0  0  0  0  0  0
   -7.0427    0.7765    1.4926 H   0  0  0  0  0  0  0  0  0  0  0  0
   -8.3216    0.9469    0.2351 H   0  0  0  0  0  0  0  0  0  0  0  0
   -6.7631    4.1651   -2.7343 H   0  0  0  0  0  0  0  0  0  0  0  0
   -5.0977    5.3830   -1.8114 H   0  0  0  0  0  0  0  0  0  0  0  0
   -7.2729    5.8989   -0.3203 H   0  0  0  0  0  0  0  0  0  0  0  0
   -6.7757    5.9253    1.4079 H   0  0  0  0  0  0  0  0  0  0  0  0
   -3.5320    3.0643   -0.6471 H   0  0  0  0  0  0  0  0  0  0  0  0
   -3.9820    2.8952   -2.3434 H   0  0  0  0  0  0  0  0  0  0  0  0
   -2.6874    5.4404    0.2407 H   0  0  0  0  0  0  0  0  0  0  0  0
   -1.3113    6.1935   -0.5889 H   0  0  0  0  0  0  0  0  0  0  0  0
  1  2  1  0
  2  3  2  0
  2  4  1  0
  4  5  1  0
  5  6  1  0
  6  7  1  0
  7  8  1  0
  8  9  1  0
  9 10  2  0
 10 11  1  0
 11 12  2  0
 12 13  1  0
 13 14  2  0
 13 15  1  0
 15 16  1  0
 16 17  1  0
 17 18  1  0
 18 19  1  0
 19 20  1  0
 20 21  2  0
 20 22  1  0
 22 23  1  0
 22 24  1  0
 24 25  1  0
 25 26  2  0
 25 27  1  0
 27 28  1  0
 27 29  1  0
 29 30  1  0
 30 31  2  0
 30 32  1  0
 32 33  1  0
 32 34  1  0
 34 35  1  0
 35 36  2  0
 18 37  1  0
 37 38  2  0
 37 39  1  0
 39 40  1  0
 40 41  1  0
 40 42  1  0
 42 43  2  0
 42 44  1  0
 44 45  1  0
 45 46  1  0
 45 47  1  0
 47 48  2  0
 47 49  1  0
 49 50  1  0
 50 51  1  0
 50 52  1  0
 52 53  2  0
 52 54  1  0
 54 55  1  0
 55 56  1  0
 56 57  1  0
 56 58  2  0
 55 59  1  0
 59 60  1  0
 60 61  1  0
 35  5  1  0
 14  9  1  0
 61 11  1  0
  1 62  1  0
  1 63  1  0
  1 64  1  0
  4 65  1  0
  5 66  1  1
  6 67  1  0
  6 68  1  0
  8 69  1  0
  8 70  1  0
 10 71  1  0
 12 72  1  0
 14 73  1  0
 15 74  1  0
 15 75  1  0
 17 76  1  0
 17 77  1  0
 18 78  1  6
 19 79  1  0
 22 80  1  1
 23 81  1  0
 23 82  1  0
 23 83  1  0
 24 84  1  0
 27 85  1  1
 28 86  1  0
 28 87  1  0
 28 88  1  0
 29 89  1  0
 32 90  1  1
 33 91  1  0
 33 92  1  0
 33 93  1  0
 34 94  1  0
 39 95  1  0
 40 96  1  1
 41 97  1  0
 41 98  1  0
 41 99  1  0
 44100  1  0
 45101  1  1
 46102  1  0
 46103  1  0
 46104  1  0
 49105  1  0
 50106  1  1
 51107  1  0
 51108  1  0
 51109  1  0
 54110  1  0
 55111  1  6
 57112  1  0
 57113  1  0
 59114  1  0
 59115  1  0
 61116  1  0
 61117  1  0
M  END
