
     RDKit          3D

167169  0  0  0  0  0  0  0  0999 V2000
    9.5252   -1.2947    2.7960 C   0  0  0  0  0  0  0  0  0  0  0  0
   10.5446   -2.1121    2.0368 C   0  0  0  0  0  0  0  0  0  0  0  0
   10.9983   -3.1723    2.5781 O   0  0  0  0  0  0  0  0  0  0  0  0
   11.0957   -1.6725    0.8083 N   0  0  0  0  0  0  0  0  0  0  0  0
   10.2778   -1.2888   -0.3510 C   0  0  2  0  0  0  0  0  0  0  0  0
   10.3172   -2.4485   -1.3995 C   0  0  0  0  0  0  0  0  0  0  0  0
    8.6202   -2.9267   -1.9002 S   0  0  0  0  0  0  0  0  0  0  0  0
    8.1529   -3.8839   -0.4081 C   0  0  0  0  0  0  0  0  0  0  0  0
    6.6640   -3.7355   -0.1721 C   0  0  0  0  0  0  0  0  0  0  0  0
    5.7839   -4.8375   -0.3160 C   0  0  0  0  0  0  0  0  0  0  0  0
    4.4018   -4.7069   -0.0045 C   0  0  0  0  0  0  0  0  0  0  0  0
    3.9396   -3.4460    0.3564 C   0  0  0  0  0  0  0  0  0  0  0  0
    4.7309   -2.3137    0.1188 C   0  0  0  0  0  0  0  0  0  0  0  0
    6.1245   -2.4807    0.1100 C   0  0  0  0  0  0  0  0  0  0  0  0
    4.1969   -1.5169   -1.0311 C   0  0  0  0  0  0  0  0  0  0  0  0
    4.6527    0.2214   -0.9413 S   0  0  0  0  0  0  0  0  0  0  0  0
    3.3023    0.6384    0.2123 C   0  0  0  0  0  0  0  0  0  0  0  0
    3.5284    2.0994    0.6569 C   0  0  2  0  0  0  0  0  0  0  0  0
    4.6547    2.1912    1.6107 N   0  0  0  0  0  0  0  0  0  0  0  0
    5.4488    3.3744    1.7557 C   0  0  0  0  0  0  0  0  0  0  0  0
    5.2926    4.0947    2.7830 O   0  0  0  0  0  0  0  0  0  0  0  0
    6.5902    3.7024    0.7975 C   0  0  1  0  0  0  0  0  0  0  0  0
    7.9224    3.8047    1.5419 C   0  0  0  0  0  0  0  0  0  0  0  0
    6.7182    2.7507   -0.3182 N   0  0  0  0  0  0  0  0  0  0  0  0
    7.9009    2.5404   -1.0806 C   0  0  0  0  0  0  0  0  0  0  0  0
    8.2769    3.3906   -1.9334 O   0  0  0  0  0  0  0  0  0  0  0  0
    8.4984    1.1622   -1.1080 C   0  0  1  0  0  0  0  0  0  0  0  0
    7.8261    0.2649   -2.1919 C   0  0  0  0  0  0  0  0  0  0  0  0
    9.9532    1.1593   -1.2689 N   0  0  0  0  0  0  0  0  0  0  0  0
   10.8107    0.0283   -0.9314 C   0  0  0  0  0  0  0  0  0  0  0  0
   12.0600    0.1422   -1.0412 O   0  0  0  0  0  0  0  0  0  0  0  0
    2.3104    2.7482    1.2388 C   0  0  0  0  0  0  0  0  0  0  0  0
    1.5920    2.1857    2.1146 O   0  0  0  0  0  0  0  0  0  0  0  0
    2.0261    4.0726    0.8040 N   0  0  0  0  0  0  0  0  0  0  0  0
    0.9991    4.3156   -0.2294 C   0  0  2  0  0  0  0  0  0  0  0  0
    1.1730    3.4024   -1.4472 C   0  0  0  0  0  0  0  0  0  0  0  0
    1.0316    5.7472   -0.6980 C   0  0  0  0  0  0  0  0  0  0  0  0
    2.1249    6.3876   -0.7261 O   0  0  0  0  0  0  0  0  0  0  0  0
   -0.1511    6.3475   -1.2451 N   0  0  0  0  0  0  0  0  0  0  0  0
   -1.0265    7.2372   -0.4579 C   0  0  2  0  0  0  0  0  0  0  0  0
   -0.4840    8.6631   -0.5039 C   0  0  0  0  0  0  0  0  0  0  0  0
   -1.1799    6.7657    0.9639 C   0  0  0  0  0  0  0  0  0  0  0  0
   -0.1826    6.8105    1.7349 O   0  0  0  0  0  0  0  0  0  0  0  0
   -2.4097    6.2360    1.4772 N   0  0  0  0  0  0  0  0  0  0  0  0
   -3.7504    6.5715    0.9715 C   0  0  2  0  0  0  0  0  0  0  0  0
   -3.9733    8.0977    1.0112 C   0  0  0  0  0  0  0  0  0  0  0  0
   -4.8041    5.9284    1.8405 C   0  0  0  0  0  0  0  0  0  0  0  0
   -4.8015    6.1521    3.0802 O   0  0  0  0  0  0  0  0  0  0  0  0
   -5.8757    5.1782    1.2616 N   0  0  0  0  0  0  0  0  0  0  0  0
   -5.6824    3.8901    0.5946 C   0  0  2  0  0  0  0  0  0  0  0  0
   -5.8827    4.0084   -0.9112 C   0  0  0  0  0  0  0  0  0  0  0  0
   -6.5294    2.8170    1.2650 C   0  0  0  0  0  0  0  0  0  0  0  0
   -6.0002    2.2160    2.2471 O   0  0  0  0  0  0  0  0  0  0  0  0
   -7.8834    2.4815    0.9258 N   0  0  0  0  0  0  0  0  0  0  0  0
   -8.8815    3.3208    0.2448 C   0  0  2  0  0  0  0  0  0  0  0  0
   -9.2197    4.5656    1.0940 C   0  0  0  0  0  0  0  0  0  0  0  0
  -10.1761    2.5583   -0.0717 C   0  0  0  0  0  0  0  0  0  0  0  0
  -11.1412    3.1784   -0.6065 O   0  0  0  0  0  0  0  0  0  0  0  0
  -10.3410    1.1880    0.2789 N   0  0  0  0  0  0  0  0  0  0  0  0
   -9.7487    0.1476   -0.5500 C   0  0  2  0  0  0  0  0  0  0  0  0
  -10.5276    0.0123   -1.8656 C   0  0  0  0  0  0  0  0  0  0  0  0
   -9.7633   -1.1595    0.2247 C   0  0  0  0  0  0  0  0  0  0  0  0
  -10.8660   -1.6460    0.5900 O   0  0  0  0  0  0  0  0  0  0  0  0
   -8.5401   -1.8108    0.6113 N   0  0  0  0  0  0  0  0  0  0  0  0
   -7.4299   -2.0967   -0.3179 C   0  0  2  0  0  0  0  0  0  0  0  0
   -7.9074   -3.0344   -1.4332 C   0  0  0  0  0  0  0  0  0  0  0  0
   -6.2625   -2.6714    0.4448 C   0  0  0  0  0  0  0  0  0  0  0  0
   -5.7441   -1.9968    1.3790 O   0  0  0  0  0  0  0  0  0  0  0  0
   -5.6799   -3.9314    0.1119 N   0  0  0  0  0  0  0  0  0  0  0  0
   -6.0465   -5.2155    0.7174 C   0  0  2  0  0  0  0  0  0  0  0  0
   -7.1081   -5.0494    1.8369 C   0  0  0  0  0  0  0  0  0  0  0  0
   -4.8304   -5.9674    1.2431 C   0  0  0  0  0  0  0  0  0  0  0  0
   -4.9929   -6.9244    2.0499 O   0  0  0  0  0  0  0  0  0  0  0  0
   -3.5088   -5.5719    0.8284 N   0  0  0  0  0  0  0  0  0  0  0  0
   -2.7457   -6.2658   -0.2143 C   0  0  2  0  0  0  0  0  0  0  0  0
   -3.6453   -6.6304   -1.4074 C   0  0  0  0  0  0  0  0  0  0  0  0
   -2.0764   -7.5079    0.3351 C   0  0  0  0  0  0  0  0  0  0  0  0
   -2.7771   -8.2791    1.0428 O   0  0  0  0  0  0  0  0  0  0  0  0
   -0.7411   -7.9251    0.0058 N   0  0  0  0  0  0  0  0  0  0  0  0
    0.3407   -7.1531   -0.6313 C   0  0  1  0  0  0  0  0  0  0  0  0
    0.1059   -6.9178   -2.1127 C   0  0  0  0  0  0  0  0  0  0  0  0
    0.8576   -7.6701   -3.0894 N   0  0  0  0  0  0  0  0  0  0  0  0
   -0.7420   -6.0775   -2.5048 O   0  0  0  0  0  0  0  0  0  0  0  0
    0.7192   -5.8675    0.1392 C   0  0  0  0  0  0  0  0  0  0  0  0
    2.2651   -6.0325    1.1406 S   0  0  0  0  0  0  0  0  0  0  0  0
    3.4553   -5.8597   -0.2337 C   0  0  0  0  0  0  0  0  0  0  0  0
    9.8317   -0.2342    2.8212 H   0  0  0  0  0  0  0  0  0  0  0  0
    9.4342   -1.6791    3.8427 H   0  0  0  0  0  0  0  0  0  0  0  0
    8.5358   -1.3875    2.2998 H   0  0  0  0  0  0  0  0  0  0  0  0
   12.1113   -1.8854    0.6649 H   0  0  0  0  0  0  0  0  0  0  0  0
    9.2591   -1.1462   -0.0060 H   0  0  0  0  0  0  0  0  0  0  0  0
   10.8706   -3.3162   -0.9825 H   0  0  0  0  0  0  0  0  0  0  0  0
   10.9077   -2.1208   -2.2872 H   0  0  0  0  0  0  0  0  0  0  0  0
    8.6840   -3.5189    0.4794 H   0  0  0  0  0  0  0  0  0  0  0  0
    8.4428   -4.9423   -0.5678 H   0  0  0  0  0  0  0  0  0  0  0  0
    6.1737   -5.7874   -0.6497 H   0  0  0  0  0  0  0  0  0  0  0  0
    3.0140   -3.3081    0.9698 H   0  0  0  0  0  0  0  0  0  0  0  0
    6.7578   -1.6126    0.2737 H   0  0  0  0  0  0  0  0  0  0  0  0
    4.6109   -1.9263   -1.9811 H   0  0  0  0  0  0  0  0  0  0  0  0
    3.0881   -1.6055   -1.1268 H   0  0  0  0  0  0  0  0  0  0  0  0
    3.2788   -0.1515    1.0734 H   0  0  0  0  0  0  0  0  0  0  0  0
    2.3976    0.6067   -0.4236 H   0  0  0  0  0  0  0  0  0  0  0  0
    3.8127    2.7120   -0.2258 H   0  0  0  0  0  0  0  0  0  0  0  0
    4.5635    1.6240    2.4728 H   0  0  0  0  0  0  0  0  0  0  0  0
    6.3807    4.7048    0.3558 H   0  0  0  0  0  0  0  0  0  0  0  0
    8.7610    4.0646    0.8494 H   0  0  0  0  0  0  0  0  0  0  0  0
    8.1937    2.8330    1.9980 H   0  0  0  0  0  0  0  0  0  0  0  0
    7.8994    4.5945    2.3414 H   0  0  0  0  0  0  0  0  0  0  0  0
    5.8525    2.6228   -0.8785 H   0  0  0  0  0  0  0  0  0  0  0  0
    8.2621    0.7420   -0.1006 H   0  0  0  0  0  0  0  0  0  0  0  0
    7.3276   -0.5724   -1.6433 H   0  0  0  0  0  0  0  0  0  0  0  0
    8.5955   -0.2021   -2.8763 H   0  0  0  0  0  0  0  0  0  0  0  0
    7.0763    0.8341   -2.7839 H   0  0  0  0  0  0  0  0  0  0  0  0
   10.4610    2.0128   -1.6072 H   0  0  0  0  0  0  0  0  0  0  0  0
    2.8630    4.7119    0.8008 H   0  0  0  0  0  0  0  0  0  0  0  0
    0.0027    4.1263    0.2224 H   0  0  0  0  0  0  0  0  0  0  0  0
    1.1224    2.3366   -1.1524 H   0  0  0  0  0  0  0  0  0  0  0  0
    2.1656    3.6173   -1.9329 H   0  0  0  0  0  0  0  0  0  0  0  0
    0.3527    3.5616   -2.2084 H   0  0  0  0  0  0  0  0  0  0  0  0
   -0.1129    6.5500   -2.2760 H   0  0  0  0  0  0  0  0  0  0  0  0
   -2.0007    7.2444   -0.9663 H   0  0  0  0  0  0  0  0  0  0  0  0
    0.5892    8.7043   -0.1772 H   0  0  0  0  0  0  0  0  0  0  0  0
   -1.0662    9.3517    0.1520 H   0  0  0  0  0  0  0  0  0  0  0  0
   -0.5459    9.0708   -1.5182 H   0  0  0  0  0  0  0  0  0  0  0  0
   -2.3258    5.6353    2.3360 H   0  0  0  0  0  0  0  0  0  0  0  0
   -3.8515    6.2188   -0.0746 H   0  0  0  0  0  0  0  0  0  0  0  0
   -3.3847    8.6128    0.2375 H   0  0  0  0  0  0  0  0  0  0  0  0
   -5.0444    8.3375    0.8428 H   0  0  0  0  0  0  0  0  0  0  0  0
   -3.6775    8.4975    2.0143 H   0  0  0  0  0  0  0  0  0  0  0  0
   -6.7930    5.3803    1.7148 H   0  0  0  0  0  0  0  0  0  0  0  0
   -4.6083    3.5744    0.7395 H   0  0  0  0  0  0  0  0  0  0  0  0
   -6.6427    4.7750   -1.1643 H   0  0  0  0  0  0  0  0  0  0  0  0
   -4.9252    4.3176   -1.4047 H   0  0  0  0  0  0  0  0  0  0  0  0
   -6.1746    3.0264   -1.3510 H   0  0  0  0  0  0  0  0  0  0  0  0
   -8.2133    1.6044    1.3713 H   0  0  0  0  0  0  0  0  0  0  0  0
   -8.5044    3.6312   -0.7483 H   0  0  0  0  0  0  0  0  0  0  0  0
   -8.8886    4.4379    2.1412 H   0  0  0  0  0  0  0  0  0  0  0  0
   -8.7399    5.4683    0.6407 H   0  0  0  0  0  0  0  0  0  0  0  0
  -10.3019    4.7905    1.1218 H   0  0  0  0  0  0  0  0  0  0  0  0
  -11.2361    0.9536    0.7654 H   0  0  0  0  0  0  0  0  0  0  0  0
   -8.6988    0.4324   -0.8036 H   0  0  0  0  0  0  0  0  0  0  0  0
  -10.0407   -0.7234   -2.5470 H   0  0  0  0  0  0  0  0  0  0  0  0
  -11.5776   -0.3184   -1.6662 H   0  0  0  0  0  0  0  0  0  0  0  0
  -10.5557    0.9877   -2.3881 H   0  0  0  0  0  0  0  0  0  0  0  0
   -8.5498   -2.2838    1.5456 H   0  0  0  0  0  0  0  0  0  0  0  0
   -7.0815   -1.1484   -0.7793 H   0  0  0  0  0  0  0  0  0  0  0  0
   -8.6138   -2.4922   -2.1021 H   0  0  0  0  0  0  0  0  0  0  0  0
   -7.0644   -3.3793   -2.0617 H   0  0  0  0  0  0  0  0  0  0  0  0
   -8.4430   -3.9165   -1.0082 H   0  0  0  0  0  0  0  0  0  0  0  0
   -5.0768   -3.9434   -0.7263 H   0  0  0  0  0  0  0  0  0  0  0  0
   -6.5260   -5.8526   -0.0647 H   0  0  0  0  0  0  0  0  0  0  0  0
   -7.3669   -6.0266    2.3101 H   0  0  0  0  0  0  0  0  0  0  0  0
   -6.7421   -4.3531    2.6230 H   0  0  0  0  0  0  0  0  0  0  0  0
   -8.0588   -4.6425    1.4068 H   0  0  0  0  0  0  0  0  0  0  0  0
   -2.9839   -5.0335    1.5491 H   0  0  0  0  0  0  0  0  0  0  0  0
   -1.9950   -5.5389   -0.5681 H   0  0  0  0  0  0  0  0  0  0  0  0
   -4.0697   -5.7199   -1.8804 H   0  0  0  0  0  0  0  0  0  0  0  0
   -3.0542   -7.1574   -2.1862 H   0  0  0  0  0  0  0  0  0  0  0  0
   -4.4742   -7.3000   -1.1050 H   0  0  0  0  0  0  0  0  0  0  0  0
   -0.4670   -8.8717    0.3480 H   0  0  0  0  0  0  0  0  0  0  0  0
    1.2486   -7.8060   -0.5875 H   0  0  0  0  0  0  0  0  0  0  0  0
    0.6538   -7.5263   -4.1025 H   0  0  0  0  0  0  0  0  0  0  0  0
    1.4778   -8.4481   -2.7959 H   0  0  0  0  0  0  0  0  0  0  0  0
   -0.0865   -5.6324    0.8768 H   0  0  0  0  0  0  0  0  0  0  0  0
    0.7824   -4.9721   -0.5185 H   0  0  0  0  0  0  0  0  0  0  0  0
    2.9518   -5.7087   -1.2151 H   0  0  0  0  0  0  0  0  0  0  0  0
    4.0196   -6.8130   -0.3380 H   0  0  0  0  0  0  0  0  0  0  0  0
  1  2  1  0
  2  3  2  0
  2  4  1  0
  4  5  1  0
  5  6  1  0
  6  7  1  0
  7  8  1  0
  8  9  1  0
  9 10  2  0
 10 11  1  0
 11 12  2  0
 12 13  1  0
 13 14  2  0
 13 15  1  0
 15 16  1  0
 16 17  1  0
 17 18  1  0
 18 19  1  0
 19 20  1  0
 20 21  2  0
 20 22  1  0
 22 23  1  0
 22 24  1  0
 24 25  1  0
 25 26  2  0
 25 27  1  0
 27 28  1  0
 27 29  1  0
 29 30  1  0
 30 31  2  0
 18 32  1  0
 32 33  2  0
 32 34  1  0
 34 35  1  0
 35 36  1  0
 35 37  1  0
 37 38  2  0
 37 39  1  0
 39 40  1  0
 40 41  1  0
 40 42  1  0
 42 43  2  0
 42 44  1  0
 44 45  1  0
 45 46  1  0
 45 47  1  0
 47 48  2  0
 47 49  1  0
 49 50  1  0
 50 51  1  0
 50 52  1  0
 52 53  2  0
 52 54  1  0
 54 55  1  0
 55 56  1  0
 55 57  1  0
 57 58  2  0
 57 59  1  0
 59 60  1  0
 60 61  1  0
 60 62  1  0
 62 63  2  0
 62 64  1  0
 64 65  1  0
 65 66  1  0
 65 67  1  0
 67 68  2  0
 67 69  1  0
 69 70  1  0
 70 71  1  0
 70 72  1  0
 72 73  2  0
 72 74  1  0
 74 75  1  0
 75 76  1  0
 75 77  1  0
 77 78  2  0
 77 79  1  0
 79 80  1  0
 80 81  1  0
 81 82  1  0
 81 83  2  0
 80 84  1  0
 84 85  1  0
 85 86  1  0
 30  5  1  0
 14  9  1  0
 86 11  1  0
  1 87  1  0
  1 88  1  0
  1 89  1  0
  4 90  1  0
  5 91  1  1
  6 92  1  0
  6 93  1  0
  8 94  1  0
  8 95  1  0
 10 96  1  0
 12 97  1  0
 14 98  1  0
 15 99  1  0
 15100  1  0
 17101  1  0
 17102  1  0
 18103  1  6
 19104  1  0
 22105  1  6
 23106  1  0
 23107  1  0
 23108  1  0
 24109  1  0
 27110  1  1
 28111  1  0
 28112  1  0
 28113  1  0
 29114  1  0
 34115  1  0
 35116  1  1
 36117  1  0
 36118  1  0
 36119  1  0
 39120  1  0
 40121  1  6
 41122  1  0
 41123  1  0
 41124  1  0
 44125  1  0
 45126  1  6
 46127  1  0
 46128  1  0
 46129  1  0
 49130  1  0
 50131  1  6
 51132  1  0
 51133  1  0
 51134  1  0
 54135  1  0
 55136  1  6
 56137  1  0
 56138  1  0
 56139  1  0
 59140  1  0
 60141  1  6
 61142  1  0
 61143  1  0
 61144  1  0
 64145  1  0
 65146  1  6
 66147  1  0
 66148  1  0
 66149  1  0
 69150  1  0
 70151  1  6
 71152  1  0
 71153  1  0
 71154  1  0
 74155  1  0
 75156  1  6
 76157  1  0
 76158  1  0
 76159  1  0
 79160  1  0
 80161  1  6
 82162  1  0
 82163  1  0
 84164  1  0
 84165  1  0
 86166  1  0
 86167  1  0
M  END
