
     RDKit          3D

127129  0  0  0  0  0  0  0  0999 V2000
  -11.5029   -0.0874   -2.1051 C   0  0  0  0  0  0  0  0  0  0  0  0
  -10.0898   -0.3584   -2.4927 C   0  0  0  0  0  0  0  0  0  0  0  0
   -9.6827   -0.0098   -3.6367 O   0  0  0  0  0  0  0  0  0  0  0  0
   -9.2088   -1.0125   -1.5735 N   0  0  0  0  0  0  0  0  0  0  0  0
   -7.7816   -1.2004   -1.8423 C   0  0  2  0  0  0  0  0  0  0  0  0
   -7.3250   -2.5613   -1.2903 C   0  0  0  0  0  0  0  0  0  0  0  0
   -5.7125   -3.0670   -2.0060 S   0  0  0  0  0  0  0  0  0  0  0  0
   -5.2673   -4.2640   -0.6833 C   0  0  0  0  0  0  0  0  0  0  0  0
   -4.0091   -3.7926   -0.0081 C   0  0  0  0  0  0  0  0  0  0  0  0
   -2.8073   -4.5057   -0.1603 C   0  0  0  0  0  0  0  0  0  0  0  0
   -1.6239   -4.0350    0.4304 C   0  0  0  0  0  0  0  0  0  0  0  0
   -1.6342   -2.8258    1.1363 C   0  0  0  0  0  0  0  0  0  0  0  0
   -2.8174   -2.0872    1.2618 C   0  0  0  0  0  0  0  0  0  0  0  0
   -3.9995   -2.5745    0.6984 C   0  0  0  0  0  0  0  0  0  0  0  0
   -2.8085   -0.7534    1.9585 C   0  0  0  0  0  0  0  0  0  0  0  0
   -1.8153    0.4762    1.0247 S   0  0  0  0  0  0  0  0  0  0  0  0
   -2.9602    0.7189   -0.3906 C   0  0  0  0  0  0  0  0  0  0  0  0
   -3.6850    2.0861   -0.3588 C   0  0  1  0  0  0  0  0  0  0  0  0
   -4.7636    2.0136    0.6226 N   0  0  0  0  0  0  0  0  0  0  0  0
   -6.0907    2.4803    0.3639 C   0  0  0  0  0  0  0  0  0  0  0  0
   -6.2695    3.7165    0.1105 O   0  0  0  0  0  0  0  0  0  0  0  0
   -7.2716    1.5950    0.6752 C   0  0  1  0  0  0  0  0  0  0  0  0
   -8.5920    2.1793    0.1540 C   0  0  0  0  0  0  0  0  0  0  0  0
   -7.0803    0.2423    0.1507 N   0  0  0  0  0  0  0  0  0  0  0  0
   -7.0118   -0.0481   -1.2544 C   0  0  0  0  0  0  0  0  0  0  0  0
   -6.3736    0.7149   -2.0192 O   0  0  0  0  0  0  0  0  0  0  0  0
   -2.7567    3.2502   -0.0524 C   0  0  0  0  0  0  0  0  0  0  0  0
   -3.1766    4.2009    0.6555 O   0  0  0  0  0  0  0  0  0  0  0  0
   -1.4226    3.2892   -0.5948 N   0  0  0  0  0  0  0  0  0  0  0  0
   -0.3018    4.0439   -0.0114 C   0  0  2  0  0  0  0  0  0  0  0  0
   -0.2773    3.9352    1.5293 C   0  0  0  0  0  0  0  0  0  0  0  0
   -0.3066    5.4824   -0.4728 C   0  0  0  0  0  0  0  0  0  0  0  0
   -1.3997    6.0139   -0.8158 O   0  0  0  0  0  0  0  0  0  0  0  0
    0.8859    6.2755   -0.4948 N   0  0  0  0  0  0  0  0  0  0  0  0
    2.2476    5.7666   -0.2451 C   0  0  2  0  0  0  0  0  0  0  0  0
    3.1187    6.9135    0.2821 C   0  0  0  0  0  0  0  0  0  0  0  0
    2.8146    5.1825   -1.5186 C   0  0  0  0  0  0  0  0  0  0  0  0
    2.9265    5.9255   -2.5301 O   0  0  0  0  0  0  0  0  0  0  0  0
    3.2414    3.8099   -1.6483 N   0  0  0  0  0  0  0  0  0  0  0  0
    4.0370    3.0236   -0.6820 C   0  0  2  0  0  0  0  0  0  0  0  0
    3.1472    2.4062    0.4109 C   0  0  0  0  0  0  0  0  0  0  0  0
    5.2125    3.8034   -0.1226 C   0  0  0  0  0  0  0  0  0  0  0  0
    5.5255    4.9251   -0.6063 O   0  0  0  0  0  0  0  0  0  0  0  0
    6.0410    3.2525    0.9092 N   0  0  0  0  0  0  0  0  0  0  0  0
    6.6536    1.9178    0.7965 C   0  0  2  0  0  0  0  0  0  0  0  0
    7.4827    1.5926    2.0463 C   0  0  0  0  0  0  0  0  0  0  0  0
    7.5227    1.8583   -0.4387 C   0  0  0  0  0  0  0  0  0  0  0  0
    8.2901    2.8156   -0.7042 O   0  0  0  0  0  0  0  0  0  0  0  0
    7.4644    0.7415   -1.3266 N   0  0  0  0  0  0  0  0  0  0  0  0
    7.6223   -0.6230   -0.8314 C   0  0  2  0  0  0  0  0  0  0  0  0
    9.1136   -0.9342   -0.6507 C   0  0  0  0  0  0  0  0  0  0  0  0
    7.0000   -1.6221   -1.7831 C   0  0  0  0  0  0  0  0  0  0  0  0
    7.3191   -1.5704   -3.0013 O   0  0  0  0  0  0  0  0  0  0  0  0
    6.1021   -2.6665   -1.3539 N   0  0  0  0  0  0  0  0  0  0  0  0
    5.4781   -2.7696   -0.0257 C   0  0  2  0  0  0  0  0  0  0  0  0
    6.4822   -3.3524    0.9791 C   0  0  0  0  0  0  0  0  0  0  0  0
    4.2027   -3.5838   -0.1134 C   0  0  0  0  0  0  0  0  0  0  0  0
    3.2248   -3.0971   -0.7375 O   0  0  0  0  0  0  0  0  0  0  0  0
    4.0755   -4.8870    0.4910 N   0  0  0  0  0  0  0  0  0  0  0  0
    2.7653   -5.5207    0.6781 C   0  0  1  0  0  0  0  0  0  0  0  0
    2.9270   -6.9786    1.0424 C   0  0  0  0  0  0  0  0  0  0  0  0
    3.6166   -7.3611    2.2289 N   0  0  0  0  0  0  0  0  0  0  0  0
    2.3775   -7.8577    0.3290 O   0  0  0  0  0  0  0  0  0  0  0  0
    1.9428   -4.7724    1.7404 C   0  0  0  0  0  0  0  0  0  0  0  0
    0.2346   -5.4085    1.8697 S   0  0  0  0  0  0  0  0  0  0  0  0
   -0.3350   -4.7748    0.2553 C   0  0  0  0  0  0  0  0  0  0  0  0
  -11.5108    0.5490   -1.1927 H   0  0  0  0  0  0  0  0  0  0  0  0
  -12.0381    0.4372   -2.9277 H   0  0  0  0  0  0  0  0  0  0  0  0
  -12.0186   -1.0443   -1.8799 H   0  0  0  0  0  0  0  0  0  0  0  0
   -9.5729   -1.2303   -0.6198 H   0  0  0  0  0  0  0  0  0  0  0  0
   -7.6194   -1.2171   -2.9385 H   0  0  0  0  0  0  0  0  0  0  0  0
   -7.2825   -2.5285   -0.1788 H   0  0  0  0  0  0  0  0  0  0  0  0
   -8.0702   -3.3395   -1.5660 H   0  0  0  0  0  0  0  0  0  0  0  0
   -6.0680   -4.3754    0.0744 H   0  0  0  0  0  0  0  0  0  0  0  0
   -5.1241   -5.2721   -1.1338 H   0  0  0  0  0  0  0  0  0  0  0  0
   -2.8091   -5.4578   -0.7022 H   0  0  0  0  0  0  0  0  0  0  0  0
   -0.7194   -2.4410    1.5763 H   0  0  0  0  0  0  0  0  0  0  0  0
   -4.9202   -2.0177    0.8127 H   0  0  0  0  0  0  0  0  0  0  0  0
   -3.8382   -0.3817    2.1078 H   0  0  0  0  0  0  0  0  0  0  0  0
   -2.3428   -0.8780    2.9630 H   0  0  0  0  0  0  0  0  0  0  0  0
   -3.7111   -0.0997   -0.4501 H   0  0  0  0  0  0  0  0  0  0  0  0
   -2.3585    0.6457   -1.3242 H   0  0  0  0  0  0  0  0  0  0  0  0
   -4.1243    2.2509   -1.3630 H   0  0  0  0  0  0  0  0  0  0  0  0
   -4.5455    1.6887    1.5937 H   0  0  0  0  0  0  0  0  0  0  0  0
   -7.3425    1.5408    1.7845 H   0  0  0  0  0  0  0  0  0  0  0  0
   -8.5552    2.3075   -0.9565 H   0  0  0  0  0  0  0  0  0  0  0  0
   -9.4350    1.4963    0.3895 H   0  0  0  0  0  0  0  0  0  0  0  0
   -8.7914    3.1600    0.6220 H   0  0  0  0  0  0  0  0  0  0  0  0
   -7.1837   -0.5445    0.8350 H   0  0  0  0  0  0  0  0  0  0  0  0
   -1.1971    2.6477   -1.3868 H   0  0  0  0  0  0  0  0  0  0  0  0
    0.6237    3.5811   -0.4014 H   0  0  0  0  0  0  0  0  0  0  0  0
   -0.3023    2.8667    1.8386 H   0  0  0  0  0  0  0  0  0  0  0  0
   -1.1251    4.4824    1.9891 H   0  0  0  0  0  0  0  0  0  0  0  0
    0.6432    4.3871    1.9574 H   0  0  0  0  0  0  0  0  0  0  0  0
    0.7874    7.2647   -0.8307 H   0  0  0  0  0  0  0  0  0  0  0  0
    2.2224    5.0052    0.5364 H   0  0  0  0  0  0  0  0  0  0  0  0
    2.6195    7.3969    1.1541 H   0  0  0  0  0  0  0  0  0  0  0  0
    3.2801    7.6856   -0.4935 H   0  0  0  0  0  0  0  0  0  0  0  0
    4.1057    6.5348    0.6383 H   0  0  0  0  0  0  0  0  0  0  0  0
    3.1838    3.4219   -2.6196 H   0  0  0  0  0  0  0  0  0  0  0  0
    4.4751    2.1580   -1.2276 H   0  0  0  0  0  0  0  0  0  0  0  0
    3.6597    1.5222    0.8593 H   0  0  0  0  0  0  0  0  0  0  0  0
    2.1950    2.0343   -0.0208 H   0  0  0  0  0  0  0  0  0  0  0  0
    2.9528    3.1164    1.2399 H   0  0  0  0  0  0  0  0  0  0  0  0
    6.4165    3.9090    1.6227 H   0  0  0  0  0  0  0  0  0  0  0  0
    5.8659    1.1516    0.7256 H   0  0  0  0  0  0  0  0  0  0  0  0
    8.2507    2.3751    2.2052 H   0  0  0  0  0  0  0  0  0  0  0  0
    6.8254    1.5713    2.9462 H   0  0  0  0  0  0  0  0  0  0  0  0
    7.9729    0.6068    1.9477 H   0  0  0  0  0  0  0  0  0  0  0  0
    7.6816    0.9235   -2.3376 H   0  0  0  0  0  0  0  0  0  0  0  0
    7.1414   -0.6980    0.1577 H   0  0  0  0  0  0  0  0  0  0  0  0
    9.6561   -0.7579   -1.5994 H   0  0  0  0  0  0  0  0  0  0  0  0
    9.2472   -2.0023   -0.3512 H   0  0  0  0  0  0  0  0  0  0  0  0
    9.5375   -0.2948    0.1516 H   0  0  0  0  0  0  0  0  0  0  0  0
    5.8525   -3.3966   -2.0737 H   0  0  0  0  0  0  0  0  0  0  0  0
    5.1853   -1.7484    0.3223 H   0  0  0  0  0  0  0  0  0  0  0  0
    5.9877   -3.5014    1.9595 H   0  0  0  0  0  0  0  0  0  0  0  0
    7.3323   -2.6763    1.1416 H   0  0  0  0  0  0  0  0  0  0  0  0
    6.8911   -4.3148    0.6108 H   0  0  0  0  0  0  0  0  0  0  0  0
    4.9199   -5.3800    0.8558 H   0  0  0  0  0  0  0  0  0  0  0  0
    2.2197   -5.4852   -0.2901 H   0  0  0  0  0  0  0  0  0  0  0  0
    3.5742   -8.3443    2.5794 H   0  0  0  0  0  0  0  0  0  0  0  0
    4.1095   -6.6453    2.8111 H   0  0  0  0  0  0  0  0  0  0  0  0
    1.9101   -3.6934    1.5262 H   0  0  0  0  0  0  0  0  0  0  0  0
    2.4181   -4.8825    2.7306 H   0  0  0  0  0  0  0  0  0  0  0  0
    0.4011   -4.0954   -0.2415 H   0  0  0  0  0  0  0  0  0  0  0  0
   -0.4745   -5.6601   -0.4068 H   0  0  0  0  0  0  0  0  0  0  0  0
  1  2  1  0
  2  3  2  0
  2  4  1  0
  4  5  1  0
  5  6  1  0
  6  7  1  0
  7  8  1  0
  8  9  1  0
  9 10  1  0
 10 11  2  0
 11 12  1  0
 12 13  2  0
 13 14  1  0
 13 15  1  0
 15 16  1  0
 16 17  1  0
 17 18  1  0
 18 19  1  0
 19 20  1  0
 20 21  2  0
 20 22  1  0
 22 23  1  0
 22 24  1  0
 24 25  1  0
 25 26  2  0
 18 27  1  0
 27 28  2  0
 27 29  1  0
 29 30  1  0
 30 31  1  0
 30 32  1  0
 32 33  2  0
 32 34  1  0
 34 35  1  0
 35 36  1  0
 35 37  1  0
 37 38  2  0
 37 39  1  0
 39 40  1  0
 40 41  1  0
 40 42  1  0
 42 43  2  0
 42 44  1  0
 44 45  1  0
 45 46  1  0
 45 47  1  0
 47 48  2  0
 47 49  1  0
 49 50  1  0
 50 51  1  0
 50 52  1  0
 52 53  2  0
 52 54  1  0
 54 55  1  0
 55 56  1  0
 55 57  1  0
 57 58  2  0
 57 59  1  0
 59 60  1  0
 60 61  1  0
 61 62  1  0
 61 63  2  0
 60 64  1  0
 64 65  1  0
 65 66  1  0
 25  5  1  0
 14  9  2  0
 66 11  1  0
  1 67  1  0
  1 68  1  0
  1 69  1  0
  4 70  1  0
  5 71  1  6
  6 72  1  0
  6 73  1  0
  8 74  1  0
  8 75  1  0
 10 76  1  0
 12 77  1  0
 14 78  1  0
 15 79  1  0
 15 80  1  0
 17 81  1  0
 17 82  1  0
 18 83  1  6
 19 84  1  0
 22 85  1  1
 23 86  1  0
 23 87  1  0
 23 88  1  0
 24 89  1  0
 29 90  1  0
 30 91  1  6
 31 92  1  0
 31 93  1  0
 31 94  1  0
 34 95  1  0
 35 96  1  1
 36 97  1  0
 36 98  1  0
 36 99  1  0
 39100  1  0
 40101  1  6
 41102  1  0
 41103  1  0
 41104  1  0
 44105  1  0
 45106  1  6
 46107  1  0
 46108  1  0
 46109  1  0
 49110  1  0
 50111  1  1
 51112  1  0
 51113  1  0
 51114  1  0
 54115  1  0
 55116  1  1
 56117  1  0
 56118  1  0
 56119  1  0
 59120  1  0
 60121  1  6
 62122  1  0
 62123  1  0
 64124  1  0
 64125  1  0
 66126  1  0
 66127  1  0
M  END
