
     RDKit          3D

177179  0  0  0  0  0  0  0  0999 V2000
  -13.9397   -3.3044    0.6538 C   0  0  0  0  0  0  0  0  0  0  0  0
  -12.8547   -2.5176    0.0010 C   0  0  0  0  0  0  0  0  0  0  0  0
  -13.1274   -1.3748   -0.4637 O   0  0  0  0  0  0  0  0  0  0  0  0
  -11.5278   -3.0518   -0.1097 N   0  0  0  0  0  0  0  0  0  0  0  0
  -10.3470   -2.1914   -0.2561 C   0  0  1  0  0  0  0  0  0  0  0  0
   -9.0553   -3.0167   -0.1448 C   0  0  0  0  0  0  0  0  0  0  0  0
   -8.8013   -3.5937    1.5740 S   0  0  0  0  0  0  0  0  0  0  0  0
   -7.6982   -2.2324    2.0994 C   0  0  0  0  0  0  0  0  0  0  0  0
   -6.2962   -2.4612    1.5991 C   0  0  0  0  0  0  0  0  0  0  0  0
   -5.5950   -3.6165    1.9886 C   0  0  0  0  0  0  0  0  0  0  0  0
   -4.2979   -3.8587    1.5067 C   0  0  0  0  0  0  0  0  0  0  0  0
   -3.6986   -2.9343    0.6348 C   0  0  0  0  0  0  0  0  0  0  0  0
   -4.3943   -1.7849    0.2316 C   0  0  0  0  0  0  0  0  0  0  0  0
   -5.6868   -1.5431    0.7305 C   0  0  0  0  0  0  0  0  0  0  0  0
   -3.7738   -0.8221   -0.7451 C   0  0  0  0  0  0  0  0  0  0  0  0
   -3.3017    0.7175    0.1165 S   0  0  0  0  0  0  0  0  0  0  0  0
   -3.9139    1.8549   -1.1786 C   0  0  0  0  0  0  0  0  0  0  0  0
   -3.9537    3.3064   -0.6676 C   0  0  2  0  0  0  0  0  0  0  0  0
   -4.8732    4.1096   -1.4865 N   0  0  0  0  0  0  0  0  0  0  0  0
   -6.2955    3.9138   -1.5255 C   0  0  0  0  0  0  0  0  0  0  0  0
   -6.9444    4.3856   -2.4964 O   0  0  0  0  0  0  0  0  0  0  0  0
   -7.0496    3.1949   -0.4300 C   0  0  1  0  0  0  0  0  0  0  0  0
   -7.9182    4.1836    0.3579 C   0  0  0  0  0  0  0  0  0  0  0  0
   -7.8097    2.0757   -0.9995 N   0  0  0  0  0  0  0  0  0  0  0  0
   -9.2314    2.0478   -1.1492 C   0  0  0  0  0  0  0  0  0  0  0  0
   -9.8301    3.0011   -1.7141 O   0  0  0  0  0  0  0  0  0  0  0  0
   -9.9972    0.8752   -0.6055 C   0  0  1  0  0  0  0  0  0  0  0  0
  -11.2398    1.3394    0.1594 C   0  0  0  0  0  0  0  0  0  0  0  0
  -10.3768   -0.0383   -1.6899 N   0  0  0  0  0  0  0  0  0  0  0  0
  -10.3898   -1.4721   -1.5862 C   0  0  0  0  0  0  0  0  0  0  0  0
  -10.4702   -2.1575   -2.6426 O   0  0  0  0  0  0  0  0  0  0  0  0
   -2.5826    3.9232   -0.6617 C   0  0  0  0  0  0  0  0  0  0  0  0
   -1.9173    4.0197   -1.7274 O   0  0  0  0  0  0  0  0  0  0  0  0
   -2.0145    4.3818    0.5663 N   0  0  0  0  0  0  0  0  0  0  0  0
   -2.1869    5.7517    1.0527 C   0  0  2  0  0  0  0  0  0  0  0  0
   -3.6740    6.0851    1.2570 C   0  0  0  0  0  0  0  0  0  0  0  0
   -1.4899    6.7288    0.1405 C   0  0  0  0  0  0  0  0  0  0  0  0
   -2.0714    7.7784   -0.2490 O   0  0  0  0  0  0  0  0  0  0  0  0
   -0.1268    6.4921   -0.2295 N   0  0  0  0  0  0  0  0  0  0  0  0
    0.9911    7.3485    0.1805 C   0  0  2  0  0  0  0  0  0  0  0  0
    0.8207    7.8239    1.6284 C   0  0  0  0  0  0  0  0  0  0  0  0
    1.1572    8.5265   -0.7549 C   0  0  0  0  0  0  0  0  0  0  0  0
    0.1538    8.9713   -1.3710 O   0  0  0  0  0  0  0  0  0  0  0  0
    2.4168    9.1997   -0.9208 N   0  0  0  0  0  0  0  0  0  0  0  0
    3.7070    8.6798   -0.4458 C   0  0  2  0  0  0  0  0  0  0  0  0
    4.7598    9.7961   -0.4844 C   0  0  0  0  0  0  0  0  0  0  0  0
    4.1618    7.5397   -1.3284 C   0  0  0  0  0  0  0  0  0  0  0  0
    3.9897    7.6438   -2.5741 O   0  0  0  0  0  0  0  0  0  0  0  0
    4.8312    6.3668   -0.8247 N   0  0  0  0  0  0  0  0  0  0  0  0
    4.9510    5.9716    0.5880 C   0  0  2  0  0  0  0  0  0  0  0  0
    6.0015    6.8226    1.3115 C   0  0  0  0  0  0  0  0  0  0  0  0
    5.3260    4.5115    0.6914 C   0  0  0  0  0  0  0  0  0  0  0  0
    4.6219    3.7336    1.3928 O   0  0  0  0  0  0  0  0  0  0  0  0
    6.4464    3.9829   -0.0260 N   0  0  0  0  0  0  0  0  0  0  0  0
    7.7626    3.8070    0.5979 C   0  0  2  0  0  0  0  0  0  0  0  0
    8.8046    4.5810   -0.2200 C   0  0  0  0  0  0  0  0  0  0  0  0
    8.1322    2.3435    0.6601 C   0  0  0  0  0  0  0  0  0  0  0  0
    7.2973    1.4572    0.3290 O   0  0  0  0  0  0  0  0  0  0  0  0
    9.4492    1.9629    1.0793 N   0  0  0  0  0  0  0  0  0  0  0  0
   10.1281    0.7424    0.6124 C   0  0  2  0  0  0  0  0  0  0  0  0
   11.6305    0.8574    0.9081 C   0  0  0  0  0  0  0  0  0  0  0  0
    9.9268    0.5426   -0.8768 C   0  0  0  0  0  0  0  0  0  0  0  0
   10.1286    1.5288   -1.6439 O   0  0  0  0  0  0  0  0  0  0  0  0
    9.4340   -0.6827   -1.4503 N   0  0  0  0  0  0  0  0  0  0  0  0
    9.2768   -1.9679   -0.7476 C   0  0  2  0  0  0  0  0  0  0  0  0
   10.6460   -2.5213   -0.3375 C   0  0  0  0  0  0  0  0  0  0  0  0
    8.5856   -2.9764   -1.6424 C   0  0  0  0  0  0  0  0  0  0  0  0
    8.9494   -3.0810   -2.8465 O   0  0  0  0  0  0  0  0  0  0  0  0
    7.5289   -3.8317   -1.1699 N   0  0  0  0  0  0  0  0  0  0  0  0
    7.5300   -4.4687    0.1532 C   0  0  2  0  0  0  0  0  0  0  0  0
    8.3651   -5.7510    0.1274 C   0  0  0  0  0  0  0  0  0  0  0  0
    6.1099   -4.7376    0.5974 C   0  0  0  0  0  0  0  0  0  0  0  0
    5.7182   -4.2765    1.7061 O   0  0  0  0  0  0  0  0  0  0  0  0
    5.1707   -5.4250   -0.2418 N   0  0  0  0  0  0  0  0  0  0  0  0
    5.2674   -6.8580   -0.5307 C   0  0  2  0  0  0  0  0  0  0  0  0
    5.4798   -7.0883   -2.0314 C   0  0  0  0  0  0  0  0  0  0  0  0
    4.0282   -7.5695   -0.0450 C   0  0  0  0  0  0  0  0  0  0  0  0
    4.1109   -8.3471    0.9418 O   0  0  0  0  0  0  0  0  0  0  0  0
    2.7713   -7.3906   -0.7170 N   0  0  0  0  0  0  0  0  0  0  0  0
    1.6856   -8.3767   -0.6124 C   0  0  2  0  0  0  0  0  0  0  0  0
    2.1221   -9.7171   -1.2121 C   0  0  0  0  0  0  0  0  0  0  0  0
    0.4530   -7.8787   -1.3368 C   0  0  0  0  0  0  0  0  0  0  0  0
    0.5244   -7.6694   -2.5778 O   0  0  0  0  0  0  0  0  0  0  0  0
   -0.8052   -7.6547   -0.6752 N   0  0  0  0  0  0  0  0  0  0  0  0
   -0.9900   -7.6071    0.7854 C   0  0  1  0  0  0  0  0  0  0  0  0
   -0.2319   -6.4519    1.3892 C   0  0  0  0  0  0  0  0  0  0  0  0
    0.0084   -6.4111    2.7951 N   0  0  0  0  0  0  0  0  0  0  0  0
    0.1899   -5.5117    0.6609 O   0  0  0  0  0  0  0  0  0  0  0  0
   -2.4887   -7.5456    1.1561 C   0  0  0  0  0  0  0  0  0  0  0  0
   -3.3645   -6.1413    0.3620 S   0  0  0  0  0  0  0  0  0  0  0  0
   -3.5716   -5.1254    1.8665 C   0  0  0  0  0  0  0  0  0  0  0  0
  -14.3942   -2.7071    1.4750 H   0  0  0  0  0  0  0  0  0  0  0  0
  -13.5406   -4.2493    1.0817 H   0  0  0  0  0  0  0  0  0  0  0  0
  -14.7201   -3.5518   -0.0968 H   0  0  0  0  0  0  0  0  0  0  0  0
  -11.3936   -4.0628    0.1352 H   0  0  0  0  0  0  0  0  0  0  0  0
  -10.3663   -1.4708    0.5851 H   0  0  0  0  0  0  0  0  0  0  0  0
   -8.1854   -2.4171   -0.4898 H   0  0  0  0  0  0  0  0  0  0  0  0
   -9.1282   -3.9074   -0.8068 H   0  0  0  0  0  0  0  0  0  0  0  0
   -7.6850   -2.2036    3.2094 H   0  0  0  0  0  0  0  0  0  0  0  0
   -8.1041   -1.2575    1.7505 H   0  0  0  0  0  0  0  0  0  0  0  0
   -6.0676   -4.3265    2.6560 H   0  0  0  0  0  0  0  0  0  0  0  0
   -2.7028   -3.1282    0.2516 H   0  0  0  0  0  0  0  0  0  0  0  0
   -6.2244   -0.6494    0.4292 H   0  0  0  0  0  0  0  0  0  0  0  0
   -4.4972   -0.6425   -1.5684 H   0  0  0  0  0  0  0  0  0  0  0  0
   -2.8604   -1.2561   -1.2063 H   0  0  0  0  0  0  0  0  0  0  0  0
   -3.2827    1.7662   -2.0883 H   0  0  0  0  0  0  0  0  0  0  0  0
   -4.9420    1.5467   -1.4581 H   0  0  0  0  0  0  0  0  0  0  0  0
   -4.3067    3.3171    0.3832 H   0  0  0  0  0  0  0  0  0  0  0  0
   -4.4700    4.7824   -2.1806 H   0  0  0  0  0  0  0  0  0  0  0  0
   -6.3557    2.7549    0.3095 H   0  0  0  0  0  0  0  0  0  0  0  0
   -7.2646    4.9068    0.8898 H   0  0  0  0  0  0  0  0  0  0  0  0
   -8.5181    3.6350    1.1161 H   0  0  0  0  0  0  0  0  0  0  0  0
   -8.5929    4.7541   -0.3115 H   0  0  0  0  0  0  0  0  0  0  0  0
   -7.2962    1.1752   -1.1451 H   0  0  0  0  0  0  0  0  0  0  0  0
   -9.3204    0.3592    0.1071 H   0  0  0  0  0  0  0  0  0  0  0  0
  -11.9713    1.8090   -0.5302 H   0  0  0  0  0  0  0  0  0  0  0  0
  -11.7213    0.4798    0.6638 H   0  0  0  0  0  0  0  0  0  0  0  0
  -10.9530    2.0796    0.9398 H   0  0  0  0  0  0  0  0  0  0  0  0
  -10.6091    0.3780   -2.6239 H   0  0  0  0  0  0  0  0  0  0  0  0
   -1.4783    3.6982    1.1480 H   0  0  0  0  0  0  0  0  0  0  0  0
   -1.6947    5.8294    2.0462 H   0  0  0  0  0  0  0  0  0  0  0  0
   -4.1530    5.3160    1.8965 H   0  0  0  0  0  0  0  0  0  0  0  0
   -3.7761    7.0713    1.7632 H   0  0  0  0  0  0  0  0  0  0  0  0
   -4.2099    6.1298    0.2853 H   0  0  0  0  0  0  0  0  0  0  0  0
    0.0892    5.6384   -0.8018 H   0  0  0  0  0  0  0  0  0  0  0  0
    1.9072    6.7276    0.1333 H   0  0  0  0  0  0  0  0  0  0  0  0
    0.6970    6.9448    2.2961 H   0  0  0  0  0  0  0  0  0  0  0  0
    1.7106    8.3939    1.9653 H   0  0  0  0  0  0  0  0  0  0  0  0
   -0.0694    8.4814    1.7238 H   0  0  0  0  0  0  0  0  0  0  0  0
    2.3998   10.1073   -1.4412 H   0  0  0  0  0  0  0  0  0  0  0  0
    3.6023    8.3554    0.6073 H   0  0  0  0  0  0  0  0  0  0  0  0
    4.8843   10.1869   -1.5182 H   0  0  0  0  0  0  0  0  0  0  0  0
    4.4459   10.6288    0.1811 H   0  0  0  0  0  0  0  0  0  0  0  0
    5.7453    9.4218   -0.1359 H   0  0  0  0  0  0  0  0  0  0  0  0
    5.1810    5.7055   -1.5567 H   0  0  0  0  0  0  0  0  0  0  0  0
    3.9714    6.1106    1.0979 H   0  0  0  0  0  0  0  0  0  0  0  0
    6.3012    6.3435    2.2682 H   0  0  0  0  0  0  0  0  0  0  0  0
    5.5939    7.8195    1.5666 H   0  0  0  0  0  0  0  0  0  0  0  0
    6.9012    6.9603    0.6787 H   0  0  0  0  0  0  0  0  0  0  0  0
    6.3130    3.7090   -1.0232 H   0  0  0  0  0  0  0  0  0  0  0  0
    7.7526    4.2158    1.6328 H   0  0  0  0  0  0  0  0  0  0  0  0
    9.7945    4.5580    0.2835 H   0  0  0  0  0  0  0  0  0  0  0  0
    8.5037    5.6418   -0.3230 H   0  0  0  0  0  0  0  0  0  0  0  0
    8.9062    4.1443   -1.2371 H   0  0  0  0  0  0  0  0  0  0  0  0
    9.9746    2.6371    1.6844 H   0  0  0  0  0  0  0  0  0  0  0  0
    9.7223   -0.1139    1.1843 H   0  0  0  0  0  0  0  0  0  0  0  0
   12.0407    1.7849    0.4552 H   0  0  0  0  0  0  0  0  0  0  0  0
   12.1987    0.0005    0.4903 H   0  0  0  0  0  0  0  0  0  0  0  0
   11.8029    0.8964    2.0081 H   0  0  0  0  0  0  0  0  0  0  0  0
    9.1813   -0.6317   -2.4652 H   0  0  0  0  0  0  0  0  0  0  0  0
    8.6545   -1.8036    0.1534 H   0  0  0  0  0  0  0  0  0  0  0  0
   11.0771   -1.9315    0.4859 H   0  0  0  0  0  0  0  0  0  0  0  0
   11.3452   -2.5102   -1.2050 H   0  0  0  0  0  0  0  0  0  0  0  0
   10.5551   -3.5599    0.0318 H   0  0  0  0  0  0  0  0  0  0  0  0
    6.9239   -4.2624   -1.9048 H   0  0  0  0  0  0  0  0  0  0  0  0
    7.9963   -3.7955    0.9021 H   0  0  0  0  0  0  0  0  0  0  0  0
    8.1017   -6.3888   -0.7399 H   0  0  0  0  0  0  0  0  0  0  0  0
    8.2236   -6.3243    1.0687 H   0  0  0  0  0  0  0  0  0  0  0  0
    9.4404   -5.5082    0.0345 H   0  0  0  0  0  0  0  0  0  0  0  0
    4.2818   -4.9245   -0.4734 H   0  0  0  0  0  0  0  0  0  0  0  0
    6.1314   -7.2958    0.0111 H   0  0  0  0  0  0  0  0  0  0  0  0
    6.4589   -6.6814   -2.3460 H   0  0  0  0  0  0  0  0  0  0  0  0
    5.4636   -8.1741   -2.2614 H   0  0  0  0  0  0  0  0  0  0  0  0
    4.6893   -6.5766   -2.6224 H   0  0  0  0  0  0  0  0  0  0  0  0
    2.6700   -6.5863   -1.3755 H   0  0  0  0  0  0  0  0  0  0  0  0
    1.4675   -8.5392    0.4641 H   0  0  0  0  0  0  0  0  0  0  0  0
    1.2769  -10.4366   -1.1875 H   0  0  0  0  0  0  0  0  0  0  0  0
    2.9537  -10.1546   -0.6218 H   0  0  0  0  0  0  0  0  0  0  0  0
    2.4551   -9.5869   -2.2621 H   0  0  0  0  0  0  0  0  0  0  0  0
   -1.6304   -7.4974   -1.2930 H   0  0  0  0  0  0  0  0  0  0  0  0
   -0.6037   -8.5522    1.2200 H   0  0  0  0  0  0  0  0  0  0  0  0
    0.5764   -5.6406    3.2075 H   0  0  0  0  0  0  0  0  0  0  0  0
   -0.3279   -7.1826    3.4133 H   0  0  0  0  0  0  0  0  0  0  0  0
   -2.9735   -8.4828    0.8087 H   0  0  0  0  0  0  0  0  0  0  0  0
   -2.5963   -7.5215    2.2593 H   0  0  0  0  0  0  0  0  0  0  0  0
   -4.1419   -5.7083    2.6190 H   0  0  0  0  0  0  0  0  0  0  0  0
   -2.5809   -4.8733    2.2989 H   0  0  0  0  0  0  0  0  0  0  0  0
  1  2  1  0
  2  3  2  0
  2  4  1  0
  4  5  1  0
  5  6  1  0
  6  7  1  0
  7  8  1  0
  8  9  1  0
  9 10  2  0
 10 11  1  0
 11 12  2  0
 12 13  1  0
 13 14  2  0
 13 15  1  0
 15 16  1  0
 16 17  1  0
 17 18  1  0
 18 19  1  0
 19 20  1  0
 20 21  2  0
 20 22  1  0
 22 23  1  0
 22 24  1  0
 24 25  1  0
 25 26  2  0
 25 27  1  0
 27 28  1  0
 27 29  1  0
 29 30  1  0
 30 31  2  0
 18 32  1  0
 32 33  2  0
 32 34  1  0
 34 35  1  0
 35 36  1  0
 35 37  1  0
 37 38  2  0
 37 39  1  0
 39 40  1  0
 40 41  1  0
 40 42  1  0
 42 43  2  0
 42 44  1  0
 44 45  1  0
 45 46  1  0
 45 47  1  0
 47 48  2  0
 47 49  1  0
 49 50  1  0
 50 51  1  0
 50 52  1  0
 52 53  2  0
 52 54  1  0
 54 55  1  0
 55 56  1  0
 55 57  1  0
 57 58  2  0
 57 59  1  0
 59 60  1  0
 60 61  1  0
 60 62  1  0
 62 63  2  0
 62 64  1  0
 64 65  1  0
 65 66  1  0
 65 67  1  0
 67 68  2  0
 67 69  1  0
 69 70  1  0
 70 71  1  0
 70 72  1  0
 72 73  2  0
 72 74  1  0
 74 75  1  0
 75 76  1  0
 75 77  1  0
 77 78  2  0
 77 79  1  0
 79 80  1  0
 80 81  1  0
 80 82  1  0
 82 83  2  0
 82 84  1  0
 84 85  1  0
 85 86  1  0
 86 87  1  0
 86 88  2  0
 85 89  1  0
 89 90  1  0
 90 91  1  0
 30  5  1  0
 14  9  1  0
 91 11  1  0
  1 92  1  0
  1 93  1  0
  1 94  1  0
  4 95  1  0
  5 96  1  1
  6 97  1  0
  6 98  1  0
  8 99  1  0
  8100  1  0
 10101  1  0
 12102  1  0
 14103  1  0
 15104  1  0
 15105  1  0
 17106  1  0
 17107  1  0
 18108  1  1
 19109  1  0
 22110  1  1
 23111  1  0
 23112  1  0
 23113  1  0
 24114  1  0
 27115  1  1
 28116  1  0
 28117  1  0
 28118  1  0
 29119  1  0
 34120  1  0
 35121  1  1
 36122  1  0
 36123  1  0
 36124  1  0
 39125  1  0
 40126  1  1
 41127  1  0
 41128  1  0
 41129  1  0
 44130  1  0
 45131  1  1
 46132  1  0
 46133  1  0
 46134  1  0
 49135  1  0
 50136  1  1
 51137  1  0
 51138  1  0
 51139  1  0
 54140  1  0
 55141  1  1
 56142  1  0
 56143  1  0
 56144  1  0
 59145  1  0
 60146  1  1
 61147  1  0
 61148  1  0
 61149  1  0
 64150  1  0
 65151  1  1
 66152  1  0
 66153  1  0
 66154  1  0
 69155  1  0
 70156  1  1
 71157  1  0
 71158  1  0
 71159  1  0
 74160  1  0
 75161  1  1
 76162  1  0
 76163  1  0
 76164  1  0
 79165  1  0
 80166  1  1
 81167  1  0
 81168  1  0
 81169  1  0
 84170  1  0
 85171  1  1
 87172  1  0
 87173  1  0
 89174  1  0
 89175  1  0
 91176  1  0
 91177  1  0
M  END
