
     RDKit          3D

137139  0  0  0  0  0  0  0  0999 V2000
   -8.5461    4.6553    1.4469 C   0  0  0  0  0  0  0  0  0  0  0  0
   -8.6180    3.1619    1.4862 C   0  0  0  0  0  0  0  0  0  0  0  0
   -9.6242    2.6269    2.0262 O   0  0  0  0  0  0  0  0  0  0  0  0
   -7.5630    2.3153    0.9895 N   0  0  0  0  0  0  0  0  0  0  0  0
   -6.7806    2.5082   -0.2443 C   0  0  2  0  0  0  0  0  0  0  0  0
   -5.8495    3.7433   -0.2004 C   0  0  0  0  0  0  0  0  0  0  0  0
   -4.6358    3.5906    1.1535 S   0  0  0  0  0  0  0  0  0  0  0  0
   -3.2911    4.5874    0.4139 C   0  0  0  0  0  0  0  0  0  0  0  0
   -1.9842    3.8914    0.6459 C   0  0  0  0  0  0  0  0  0  0  0  0
   -1.8248    2.5639    0.2039 C   0  0  0  0  0  0  0  0  0  0  0  0
   -0.6729    1.8311    0.5366 C   0  0  0  0  0  0  0  0  0  0  0  0
    0.3483    2.4489    1.2742 C   0  0  0  0  0  0  0  0  0  0  0  0
    0.2359    3.8018    1.6575 C   0  0  0  0  0  0  0  0  0  0  0  0
   -0.9448    4.5069    1.3598 C   0  0  0  0  0  0  0  0  0  0  0  0
    1.3108    4.4309    2.5014 C   0  0  0  0  0  0  0  0  0  0  0  0
    1.8986    6.0184    1.8095 S   0  0  0  0  0  0  0  0  0  0  0  0
    2.7588    5.3130    0.3612 C   0  0  0  0  0  0  0  0  0  0  0  0
    3.9337    6.2225   -0.0635 C   0  0  1  0  0  0  0  0  0  0  0  0
    4.9672    6.3094    1.0336 C   0  0  0  0  0  0  0  0  0  0  0  0
    5.3819    7.5823    1.5497 N   0  0  0  0  0  0  0  0  0  0  0  0
    5.5079    5.2574    1.4676 O   0  0  0  0  0  0  0  0  0  0  0  0
    4.5989    5.7668   -1.2924 N   0  0  0  0  0  0  0  0  0  0  0  0
    4.2339    4.5985   -2.0345 C   0  0  0  0  0  0  0  0  0  0  0  0
    3.1939    4.6137   -2.7511 O   0  0  0  0  0  0  0  0  0  0  0  0
    5.0634    3.3364   -1.9658 C   0  0  1  0  0  0  0  0  0  0  0  0
    6.5386    3.6688   -1.6943 C   0  0  0  0  0  0  0  0  0  0  0  0
    4.4718    2.4303   -0.9640 N   0  0  0  0  0  0  0  0  0  0  0  0
    5.1899    1.6208   -0.0210 C   0  0  0  0  0  0  0  0  0  0  0  0
    4.8716    1.6668    1.1965 O   0  0  0  0  0  0  0  0  0  0  0  0
    6.2335    0.6300   -0.4696 C   0  0  1  0  0  0  0  0  0  0  0  0
    7.5590    0.8601    0.2693 C   0  0  0  0  0  0  0  0  0  0  0  0
    5.7648   -0.7353   -0.2075 N   0  0  0  0  0  0  0  0  0  0  0  0
    5.5926   -1.6640   -1.2862 C   0  0  0  0  0  0  0  0  0  0  0  0
    4.8244   -1.3700   -2.2436 O   0  0  0  0  0  0  0  0  0  0  0  0
    6.3947   -2.9414   -1.3504 C   0  0  1  0  0  0  0  0  0  0  0  0
    7.7440   -2.6765   -2.0124 C   0  0  0  0  0  0  0  0  0  0  0  0
    6.6037   -3.4882   -0.0093 N   0  0  0  0  0  0  0  0  0  0  0  0
    6.1635   -4.8058    0.3498 C   0  0  0  0  0  0  0  0  0  0  0  0
    6.5237   -5.7894   -0.3605 O   0  0  0  0  0  0  0  0  0  0  0  0
    5.3615   -5.0513    1.6037 C   0  0  1  0  0  0  0  0  0  0  0  0
    5.0866   -3.7815    2.4283 C   0  0  0  0  0  0  0  0  0  0  0  0
    4.1044   -5.7224    1.2748 N   0  0  0  0  0  0  0  0  0  0  0  0
    3.0420   -5.0998    0.5348 C   0  0  0  0  0  0  0  0  0  0  0  0
    3.3131   -4.2525   -0.3522 O   0  0  0  0  0  0  0  0  0  0  0  0
    1.6209   -5.5858    0.7134 C   0  0  1  0  0  0  0  0  0  0  0  0
    1.2872   -5.7841    2.1981 C   0  0  0  0  0  0  0  0  0  0  0  0
    0.6558   -4.6822    0.0693 N   0  0  0  0  0  0  0  0  0  0  0  0
    0.3503   -3.3648    0.5494 C   0  0  0  0  0  0  0  0  0  0  0  0
    1.0964   -2.4016    0.2091 O   0  0  0  0  0  0  0  0  0  0  0  0
   -0.8164   -3.1517    1.5020 C   0  0  1  0  0  0  0  0  0  0  0  0
   -0.8509   -1.7086    2.0890 C   0  0  0  0  0  0  0  0  0  0  0  0
   -1.8873   -0.5296    1.1321 S   0  0  0  0  0  0  0  0  0  0  0  0
   -0.5948    0.3649    0.1892 C   0  0  0  0  0  0  0  0  0  0  0  0
   -2.1012   -3.5106    0.8814 N   0  0  0  0  0  0  0  0  0  0  0  0
   -2.3754   -4.7798    0.2753 C   0  0  0  0  0  0  0  0  0  0  0  0
   -1.8306   -5.8151    0.7411 O   0  0  0  0  0  0  0  0  0  0  0  0
   -3.2041   -4.8690   -0.9876 C   0  0  1  0  0  0  0  0  0  0  0  0
   -3.9977   -6.1909   -1.0283 C   0  0  0  0  0  0  0  0  0  0  0  0
   -4.0683   -3.6878   -1.1090 N   0  0  0  0  0  0  0  0  0  0  0  0
   -5.4182   -3.6965   -1.5855 C   0  0  0  0  0  0  0  0  0  0  0  0
   -5.6809   -4.1696   -2.7301 O   0  0  0  0  0  0  0  0  0  0  0  0
   -6.4922   -2.9714   -0.8218 C   0  0  1  0  0  0  0  0  0  0  0  0
   -6.5102   -3.3972    0.6534 C   0  0  0  0  0  0  0  0  0  0  0  0
   -6.2739   -1.5255   -0.9267 N   0  0  0  0  0  0  0  0  0  0  0  0
   -7.1941   -0.6688   -1.6130 C   0  0  0  0  0  0  0  0  0  0  0  0
   -8.4387   -0.8665   -1.5031 O   0  0  0  0  0  0  0  0  0  0  0  0
   -6.6767    0.4064   -2.5251 C   0  0  1  0  0  0  0  0  0  0  0  0
   -6.5714   -0.1731   -3.9442 C   0  0  0  0  0  0  0  0  0  0  0  0
   -7.5835    1.5602   -2.5179 N   0  0  0  0  0  0  0  0  0  0  0  0
   -7.6760    2.5342   -1.4631 C   0  0  0  0  0  0  0  0  0  0  0  0
   -8.5109    3.4733   -1.5878 O   0  0  0  0  0  0  0  0  0  0  0  0
   -8.6547    5.0137    0.4124 H   0  0  0  0  0  0  0  0  0  0  0  0
   -7.5855    4.9924    1.8831 H   0  0  0  0  0  0  0  0  0  0  0  0
   -9.3651    5.1024    2.0509 H   0  0  0  0  0  0  0  0  0  0  0  0
   -7.5525    1.3497    1.3798 H   0  0  0  0  0  0  0  0  0  0  0  0
   -6.1005    1.6374   -0.3101 H   0  0  0  0  0  0  0  0  0  0  0  0
   -5.3185    3.7678   -1.1747 H   0  0  0  0  0  0  0  0  0  0  0  0
   -6.4053    4.6929   -0.1098 H   0  0  0  0  0  0  0  0  0  0  0  0
   -3.3052    5.5941    0.8881 H   0  0  0  0  0  0  0  0  0  0  0  0
   -3.4188    4.7355   -0.6805 H   0  0  0  0  0  0  0  0  0  0  0  0
   -2.6107    2.0949   -0.3681 H   0  0  0  0  0  0  0  0  0  0  0  0
    1.2302    1.8875    1.5423 H   0  0  0  0  0  0  0  0  0  0  0  0
   -1.0701    5.5192    1.7324 H   0  0  0  0  0  0  0  0  0  0  0  0
    0.9020    4.6284    3.5162 H   0  0  0  0  0  0  0  0  0  0  0  0
    2.1816    3.7488    2.6265 H   0  0  0  0  0  0  0  0  0  0  0  0
    3.1481    4.3006    0.5951 H   0  0  0  0  0  0  0  0  0  0  0  0
    2.0191    5.2296   -0.4589 H   0  0  0  0  0  0  0  0  0  0  0  0
    3.5282    7.2399   -0.2625 H   0  0  0  0  0  0  0  0  0  0  0  0
    5.0316    8.4680    1.1272 H   0  0  0  0  0  0  0  0  0  0  0  0
    6.1129    7.6289    2.2893 H   0  0  0  0  0  0  0  0  0  0  0  0
    5.4822    6.2429   -1.5630 H   0  0  0  0  0  0  0  0  0  0  0  0
    5.0007    2.8325   -2.9584 H   0  0  0  0  0  0  0  0  0  0  0  0
    7.1914    2.8169   -1.9648 H   0  0  0  0  0  0  0  0  0  0  0  0
    6.8679    4.5165   -2.3280 H   0  0  0  0  0  0  0  0  0  0  0  0
    6.6891    3.9328   -0.6283 H   0  0  0  0  0  0  0  0  0  0  0  0
    3.4265    2.4003   -0.8877 H   0  0  0  0  0  0  0  0  0  0  0  0
    6.4138    0.7546   -1.5587 H   0  0  0  0  0  0  0  0  0  0  0  0
    7.4067    0.8314    1.3750 H   0  0  0  0  0  0  0  0  0  0  0  0
    8.0009    1.8500    0.0094 H   0  0  0  0  0  0  0  0  0  0  0  0
    8.2947    0.0711    0.0019 H   0  0  0  0  0  0  0  0  0  0  0  0
    5.8085   -1.0882    0.7735 H   0  0  0  0  0  0  0  0  0  0  0  0
    5.8415   -3.6789   -1.9776 H   0  0  0  0  0  0  0  0  0  0  0  0
    7.6056   -2.2387   -3.0228 H   0  0  0  0  0  0  0  0  0  0  0  0
    8.3442   -1.9738   -1.3911 H   0  0  0  0  0  0  0  0  0  0  0  0
    8.3113   -3.6300   -2.1118 H   0  0  0  0  0  0  0  0  0  0  0  0
    7.1605   -2.9437    0.6889 H   0  0  0  0  0  0  0  0  0  0  0  0
    5.9635   -5.7375    2.2479 H   0  0  0  0  0  0  0  0  0  0  0  0
    6.0492   -3.3537    2.7969 H   0  0  0  0  0  0  0  0  0  0  0  0
    4.4644   -4.0472    3.3080 H   0  0  0  0  0  0  0  0  0  0  0  0
    4.5513   -3.0254    1.8215 H   0  0  0  0  0  0  0  0  0  0  0  0
    3.9821   -6.7232    1.5735 H   0  0  0  0  0  0  0  0  0  0  0  0
    1.5477   -6.5799    0.2188 H   0  0  0  0  0  0  0  0  0  0  0  0
    0.2265   -6.0797    2.3199 H   0  0  0  0  0  0  0  0  0  0  0  0
    1.4818   -4.8528    2.7668 H   0  0  0  0  0  0  0  0  0  0  0  0
    1.9013   -6.6032    2.6352 H   0  0  0  0  0  0  0  0  0  0  0  0
    0.2414   -4.9771   -0.8424 H   0  0  0  0  0  0  0  0  0  0  0  0
   -0.6569   -3.8342    2.3590 H   0  0  0  0  0  0  0  0  0  0  0  0
    0.1643   -1.2982    2.2716 H   0  0  0  0  0  0  0  0  0  0  0  0
   -1.3206   -1.7763    3.0995 H   0  0  0  0  0  0  0  0  0  0  0  0
   -0.8167    0.2416   -0.9045 H   0  0  0  0  0  0  0  0  0  0  0  0
    0.4312   -0.0265    0.3730 H   0  0  0  0  0  0  0  0  0  0  0  0
   -2.9555   -2.9968    1.1854 H   0  0  0  0  0  0  0  0  0  0  0  0
   -2.4897   -4.8654   -1.8504 H   0  0  0  0  0  0  0  0  0  0  0  0
   -4.7406   -6.2202   -0.2046 H   0  0  0  0  0  0  0  0  0  0  0  0
   -3.3167   -7.0617   -0.9354 H   0  0  0  0  0  0  0  0  0  0  0  0
   -4.5182   -6.3021   -2.0022 H   0  0  0  0  0  0  0  0  0  0  0  0
   -3.6230   -2.7442   -1.0334 H   0  0  0  0  0  0  0  0  0  0  0  0
   -7.4830   -3.2464   -1.2545 H   0  0  0  0  0  0  0  0  0  0  0  0
   -6.6455   -4.4986    0.7297 H   0  0  0  0  0  0  0  0  0  0  0  0
   -7.3461   -2.8954    1.1789 H   0  0  0  0  0  0  0  0  0  0  0  0
   -5.5596   -3.1096    1.1491 H   0  0  0  0  0  0  0  0  0  0  0  0
   -5.3576   -1.1255   -0.6107 H   0  0  0  0  0  0  0  0  0  0  0  0
   -5.6539    0.7219   -2.2357 H   0  0  0  0  0  0  0  0  0  0  0  0
   -6.1587    0.5970   -4.6332 H   0  0  0  0  0  0  0  0  0  0  0  0
   -5.8757   -1.0441   -3.9470 H   0  0  0  0  0  0  0  0  0  0  0  0
   -7.5647   -0.5068   -4.3179 H   0  0  0  0  0  0  0  0  0  0  0  0
   -8.2731    1.6546   -3.3088 H   0  0  0  0  0  0  0  0  0  0  0  0
  1  2  1  0
  2  3  2  0
  2  4  1  0
  4  5  1  0
  5  6  1  0
  6  7  1  0
  7  8  1  0
  8  9  1  0
  9 10  1  0
 10 11  2  0
 11 12  1  0
 12 13  2  0
 13 14  1  0
 13 15  1  0
 15 16  1  0
 16 17  1  0
 17 18  1  0
 18 19  1  0
 19 20  1  0
 19 21  2  0
 18 22  1  0
 22 23  1  0
 23 24  2  0
 23 25  1  0
 25 26  1  0
 25 27  1  0
 27 28  1  0
 28 29  2  0
 28 30  1  0
 30 31  1  0
 30 32  1  0
 32 33  1  0
 33 34  2  0
 33 35  1  0
 35 36  1  0
 35 37  1  0
 37 38  1  0
 38 39  2  0
 38 40  1  0
 40 41  1  0
 40 42  1  0
 42 43  1  0
 43 44  2  0
 43 45  1  0
 45 46  1  0
 45 47  1  0
 47 48  1  0
 48 49  2  0
 48 50  1  0
 50 51  1  0
 51 52  1  0
 52 53  1  0
 50 54  1  0
 54 55  1  0
 55 56  2  0
 55 57  1  0
 57 58  1  0
 57 59  1  0
 59 60  1  0
 60 61  2  0
 60 62  1  0
 62 63  1  0
 62 64  1  0
 64 65  1  0
 65 66  2  0
 65 67  1  0
 67 68  1  0
 67 69  1  0
 69 70  1  0
 70 71  2  0
 70  5  1  0
 14  9  2  0
 53 11  1  0
  1 72  1  0
  1 73  1  0
  1 74  1  0
  4 75  1  0
  5 76  1  6
  6 77  1  0
  6 78  1  0
  8 79  1  0
  8 80  1  0
 10 81  1  0
 12 82  1  0
 14 83  1  0
 15 84  1  0
 15 85  1  0
 17 86  1  0
 17 87  1  0
 18 88  1  6
 20 89  1  0
 20 90  1  0
 22 91  1  0
 25 92  1  6
 26 93  1  0
 26 94  1  0
 26 95  1  0
 27 96  1  0
 30 97  1  6
 31 98  1  0
 31 99  1  0
 31100  1  0
 32101  1  0
 35102  1  6
 36103  1  0
 36104  1  0
 36105  1  0
 37106  1  0
 40107  1  1
 41108  1  0
 41109  1  0
 41110  1  0
 42111  1  0
 45112  1  6
 46113  1  0
 46114  1  0
 46115  1  0
 47116  1  0
 50117  1  1
 51118  1  0
 51119  1  0
 53120  1  0
 53121  1  0
 54122  1  0
 57123  1  6
 58124  1  0
 58125  1  0
 58126  1  0
 59127  1  0
 62128  1  6
 63129  1  0
 63130  1  0
 63131  1  0
 64132  1  0
 67133  1  1
 68134  1  0
 68135  1  0
 68136  1  0
 69137  1  0
M  END
