
     RDKit          3D

137139  0  0  0  0  0  0  0  0999 V2000
    9.0174    4.5718    1.9075 C   0  0  0  0  0  0  0  0  0  0  0  0
    8.5399    3.7766    0.7384 C   0  0  0  0  0  0  0  0  0  0  0  0
    9.2193    3.7776   -0.3219 O   0  0  0  0  0  0  0  0  0  0  0  0
    7.3143    3.0275    0.8262 N   0  0  0  0  0  0  0  0  0  0  0  0
    6.6021    2.5027   -0.3430 C   0  0  1  0  0  0  0  0  0  0  0  0
    6.1799    3.6544   -1.2794 C   0  0  0  0  0  0  0  0  0  0  0  0
    4.8080    3.1323   -2.3905 S   0  0  0  0  0  0  0  0  0  0  0  0
    3.4905    4.2775   -1.7935 C   0  0  0  0  0  0  0  0  0  0  0  0
    2.2934    3.6192   -1.1294 C   0  0  0  0  0  0  0  0  0  0  0  0
    2.1327    2.2320   -0.9941 C   0  0  0  0  0  0  0  0  0  0  0  0
    0.9481    1.6939   -0.4080 C   0  0  0  0  0  0  0  0  0  0  0  0
   -0.0360    2.5873    0.0530 C   0  0  0  0  0  0  0  0  0  0  0  0
    0.1830    3.9673    0.0443 C   0  0  0  0  0  0  0  0  0  0  0  0
    1.3084    4.4735   -0.6140 C   0  0  0  0  0  0  0  0  0  0  0  0
   -0.7336    4.8843    0.7884 C   0  0  0  0  0  0  0  0  0  0  0  0
   -1.8399    5.7219   -0.3893 S   0  0  0  0  0  0  0  0  0  0  0  0
   -3.4089    5.2224    0.4002 C   0  0  0  0  0  0  0  0  0  0  0  0
   -4.6111    5.3883   -0.5411 C   0  0  1  0  0  0  0  0  0  0  0  0
   -4.7105    6.7901   -1.0851 C   0  0  0  0  0  0  0  0  0  0  0  0
   -4.9988    7.8770   -0.2039 N   0  0  0  0  0  0  0  0  0  0  0  0
   -4.5480    7.0213   -2.3153 O   0  0  0  0  0  0  0  0  0  0  0  0
   -4.5268    4.4066   -1.6319 N   0  0  0  0  0  0  0  0  0  0  0  0
   -5.5432    3.4487   -1.9837 C   0  0  0  0  0  0  0  0  0  0  0  0
   -5.2805    2.6075   -2.8857 O   0  0  0  0  0  0  0  0  0  0  0  0
   -6.9169    3.4506   -1.3529 C   0  0  1  0  0  0  0  0  0  0  0  0
   -7.7429    4.6397   -1.8481 C   0  0  0  0  0  0  0  0  0  0  0  0
   -7.6336    2.2127   -1.6753 N   0  0  0  0  0  0  0  0  0  0  0  0
   -8.4545    1.5178   -0.7245 C   0  0  0  0  0  0  0  0  0  0  0  0
   -9.6272    1.1829   -1.0587 O   0  0  0  0  0  0  0  0  0  0  0  0
   -7.9636    1.1970    0.6634 C   0  0  1  0  0  0  0  0  0  0  0  0
   -8.5558    2.1732    1.6801 C   0  0  0  0  0  0  0  0  0  0  0  0
   -8.3543   -0.1718    1.0158 N   0  0  0  0  0  0  0  0  0  0  0  0
   -7.6468   -1.3592    0.6192 C   0  0  0  0  0  0  0  0  0  0  0  0
   -8.2137   -2.4753    0.7740 O   0  0  0  0  0  0  0  0  0  0  0  0
   -6.2185   -1.3341    0.1205 C   0  0  1  0  0  0  0  0  0  0  0  0
   -5.2783   -1.2970    1.3268 C   0  0  0  0  0  0  0  0  0  0  0  0
   -5.9805   -2.4895   -0.7600 N   0  0  0  0  0  0  0  0  0  0  0  0
   -4.7112   -3.1443   -0.9290 C   0  0  0  0  0  0  0  0  0  0  0  0
   -4.0243   -2.8836   -1.9591 O   0  0  0  0  0  0  0  0  0  0  0  0
   -4.2363   -4.1817    0.0646 C   0  0  1  0  0  0  0  0  0  0  0  0
   -5.3854   -5.1245    0.4386 C   0  0  0  0  0  0  0  0  0  0  0  0
   -3.1281   -4.9699   -0.4897 N   0  0  0  0  0  0  0  0  0  0  0  0
   -2.0866   -5.5495    0.3162 C   0  0  0  0  0  0  0  0  0  0  0  0
   -1.6678   -6.7025    0.0281 O   0  0  0  0  0  0  0  0  0  0  0  0
   -1.5134   -4.8305    1.5194 C   0  0  1  0  0  0  0  0  0  0  0  0
   -2.2497   -5.2364    2.7991 C   0  0  0  0  0  0  0  0  0  0  0  0
   -0.0884   -5.1640    1.6634 N   0  0  0  0  0  0  0  0  0  0  0  0
    0.9845   -4.2104    1.6961 C   0  0  0  0  0  0  0  0  0  0  0  0
    1.9637   -4.4395    2.4514 O   0  0  0  0  0  0  0  0  0  0  0  0
    1.0411   -3.0589    0.7119 C   0  0  1  0  0  0  0  0  0  0  0  0
    2.0054   -1.9355    1.1369 C   0  0  0  0  0  0  0  0  0  0  0  0
    2.3076   -0.7453   -0.2181 S   0  0  0  0  0  0  0  0  0  0  0  0
    0.7699    0.2257   -0.0885 C   0  0  0  0  0  0  0  0  0  0  0  0
    1.3053   -3.5482   -0.6510 N   0  0  0  0  0  0  0  0  0  0  0  0
    2.3719   -4.4136   -1.0998 C   0  0  0  0  0  0  0  0  0  0  0  0
    2.2110   -5.0311   -2.1901 O   0  0  0  0  0  0  0  0  0  0  0  0
    3.7297   -4.5217   -0.4271 C   0  0  1  0  0  0  0  0  0  0  0  0
    4.1446   -6.0058   -0.3728 C   0  0  0  0  0  0  0  0  0  0  0  0
    4.6902   -3.6769   -1.1671 N   0  0  0  0  0  0  0  0  0  0  0  0
    6.0933   -3.9283   -1.3831 C   0  0  0  0  0  0  0  0  0  0  0  0
    6.5485   -3.7863   -2.5533 O   0  0  0  0  0  0  0  0  0  0  0  0
    7.0498   -4.2537   -0.2459 C   0  0  1  0  0  0  0  0  0  0  0  0
    8.4992   -4.4090   -0.7096 C   0  0  0  0  0  0  0  0  0  0  0  0
    6.9784   -3.2697    0.8446 N   0  0  0  0  0  0  0  0  0  0  0  0
    7.5141   -1.9389    0.7774 C   0  0  0  0  0  0  0  0  0  0  0  0
    8.3243   -1.5532    1.6674 O   0  0  0  0  0  0  0  0  0  0  0  0
    7.0044   -0.9534   -0.2434 C   0  0  1  0  0  0  0  0  0  0  0  0
    5.5564   -0.6269    0.0860 C   0  0  0  0  0  0  0  0  0  0  0  0
    7.8398    0.2564   -0.2834 N   0  0  0  0  0  0  0  0  0  0  0  0
    7.4231    1.4238   -1.0146 C   0  0  0  0  0  0  0  0  0  0  0  0
    7.7566    1.5356   -2.2238 O   0  0  0  0  0  0  0  0  0  0  0  0
    9.9991    4.1961    2.2530 H   0  0  0  0  0  0  0  0  0  0  0  0
    8.3059    4.5067    2.7574 H   0  0  0  0  0  0  0  0  0  0  0  0
    9.1278    5.6418    1.6222 H   0  0  0  0  0  0  0  0  0  0  0  0
    6.8613    2.9138    1.7639 H   0  0  0  0  0  0  0  0  0  0  0  0
    5.6594    2.0464    0.0223 H   0  0  0  0  0  0  0  0  0  0  0  0
    7.0362    3.9941   -1.9070 H   0  0  0  0  0  0  0  0  0  0  0  0
    5.8978    4.5328   -0.6607 H   0  0  0  0  0  0  0  0  0  0  0  0
    3.1132    4.8468   -2.6649 H   0  0  0  0  0  0  0  0  0  0  0  0
    3.8940    5.0374   -1.0943 H   0  0  0  0  0  0  0  0  0  0  0  0
    2.9543    1.5815   -1.2659 H   0  0  0  0  0  0  0  0  0  0  0  0
   -0.9138    2.1938    0.5654 H   0  0  0  0  0  0  0  0  0  0  0  0
    1.4468    5.5490   -0.6595 H   0  0  0  0  0  0  0  0  0  0  0  0
   -1.2857    4.3342    1.5793 H   0  0  0  0  0  0  0  0  0  0  0  0
   -0.1339    5.6570    1.3123 H   0  0  0  0  0  0  0  0  0  0  0  0
   -3.3614    4.1559    0.7153 H   0  0  0  0  0  0  0  0  0  0  0  0
   -3.5490    5.8441    1.3109 H   0  0  0  0  0  0  0  0  0  0  0  0
   -5.5131    5.2175    0.0671 H   0  0  0  0  0  0  0  0  0  0  0  0
   -5.0894    8.8502   -0.5725 H   0  0  0  0  0  0  0  0  0  0  0  0
   -5.1659    7.7148    0.8156 H   0  0  0  0  0  0  0  0  0  0  0  0
   -3.6425    4.3754   -2.1919 H   0  0  0  0  0  0  0  0  0  0  0  0
   -6.7999    3.5234   -0.2569 H   0  0  0  0  0  0  0  0  0  0  0  0
   -8.7544    4.6133   -1.3862 H   0  0  0  0  0  0  0  0  0  0  0  0
   -7.8586    4.5911   -2.9530 H   0  0  0  0  0  0  0  0  0  0  0  0
   -7.2659    5.6022   -1.5847 H   0  0  0  0  0  0  0  0  0  0  0  0
   -7.8278    2.0206   -2.6829 H   0  0  0  0  0  0  0  0  0  0  0  0
   -6.8633    1.2978    0.7110 H   0  0  0  0  0  0  0  0  0  0  0  0
   -8.2117    3.2123    1.4917 H   0  0  0  0  0  0  0  0  0  0  0  0
   -9.6666    2.1523    1.6489 H   0  0  0  0  0  0  0  0  0  0  0  0
   -8.2255    1.8860    2.7077 H   0  0  0  0  0  0  0  0  0  0  0  0
   -9.3181   -0.3133    1.3987 H   0  0  0  0  0  0  0  0  0  0  0  0
   -6.0526   -0.4193   -0.4871 H   0  0  0  0  0  0  0  0  0  0  0  0
   -5.4826   -0.3981    1.9471 H   0  0  0  0  0  0  0  0  0  0  0  0
   -4.2155   -1.2375    0.9969 H   0  0  0  0  0  0  0  0  0  0  0  0
   -5.4228   -2.1973    1.9672 H   0  0  0  0  0  0  0  0  0  0  0  0
   -6.6393   -2.5823   -1.5695 H   0  0  0  0  0  0  0  0  0  0  0  0
   -3.9027   -3.6523    0.9749 H   0  0  0  0  0  0  0  0  0  0  0  0
   -6.2258   -4.5658    0.9060 H   0  0  0  0  0  0  0  0  0  0  0  0
   -5.7651   -5.6504   -0.4613 H   0  0  0  0  0  0  0  0  0  0  0  0
   -5.0312   -5.8837    1.1699 H   0  0  0  0  0  0  0  0  0  0  0  0
   -3.2787   -5.3956   -1.4304 H   0  0  0  0  0  0  0  0  0  0  0  0
   -1.6473   -3.7371    1.3842 H   0  0  0  0  0  0  0  0  0  0  0  0
   -1.8786   -4.6288    3.6489 H   0  0  0  0  0  0  0  0  0  0  0  0
   -3.3420   -5.0873    2.7082 H   0  0  0  0  0  0  0  0  0  0  0  0
   -2.0589   -6.3023    3.0328 H   0  0  0  0  0  0  0  0  0  0  0  0
    0.1548   -6.1478    1.9263 H   0  0  0  0  0  0  0  0  0  0  0  0
    0.0445   -2.5783    0.7004 H   0  0  0  0  0  0  0  0  0  0  0  0
    1.5959   -1.4001    2.0215 H   0  0  0  0  0  0  0  0  0  0  0  0
    2.9870   -2.3237    1.4545 H   0  0  0  0  0  0  0  0  0  0  0  0
    0.0280   -0.2020   -0.7924 H   0  0  0  0  0  0  0  0  0  0  0  0
    0.3438    0.1421    0.9350 H   0  0  0  0  0  0  0  0  0  0  0  0
    0.5357   -3.3804   -1.3430 H   0  0  0  0  0  0  0  0  0  0  0  0
    3.6785   -4.1640    0.6139 H   0  0  0  0  0  0  0  0  0  0  0  0
    4.6058   -6.3144   -1.3335 H   0  0  0  0  0  0  0  0  0  0  0  0
    4.8570   -6.1766    0.4630 H   0  0  0  0  0  0  0  0  0  0  0  0
    3.2677   -6.6535   -0.1749 H   0  0  0  0  0  0  0  0  0  0  0  0
    4.2902   -2.8810   -1.7203 H   0  0  0  0  0  0  0  0  0  0  0  0
    6.7658   -5.2415    0.1613 H   0  0  0  0  0  0  0  0  0  0  0  0
    8.8719   -3.4770   -1.1814 H   0  0  0  0  0  0  0  0  0  0  0  0
    8.5808   -5.2388   -1.4429 H   0  0  0  0  0  0  0  0  0  0  0  0
    9.1435   -4.6554    0.1599 H   0  0  0  0  0  0  0  0  0  0  0  0
    6.6322   -3.5958    1.7740 H   0  0  0  0  0  0  0  0  0  0  0  0
    7.0388   -1.4307   -1.2410 H   0  0  0  0  0  0  0  0  0  0  0  0
    5.0921   -0.1139   -0.7788 H   0  0  0  0  0  0  0  0  0  0  0  0
    5.4962    0.0037    0.9948 H   0  0  0  0  0  0  0  0  0  0  0  0
    4.9842   -1.5531    0.2768 H   0  0  0  0  0  0  0  0  0  0  0  0
    8.8646    0.0878   -0.3036 H   0  0  0  0  0  0  0  0  0  0  0  0
  1  2  1  0
  2  3  2  0
  2  4  1  0
  4  5  1  0
  5  6  1  0
  6  7  1  0
  7  8  1  0
  8  9  1  0
  9 10  1  0
 10 11  2  0
 11 12  1  0
 12 13  2  0
 13 14  1  0
 13 15  1  0
 15 16  1  0
 16 17  1  0
 17 18  1  0
 18 19  1  0
 19 20  1  0
 19 21  2  0
 18 22  1  0
 22 23  1  0
 23 24  2  0
 23 25  1  0
 25 26  1  0
 25 27  1  0
 27 28  1  0
 28 29  2  0
 28 30  1  0
 30 31  1  0
 30 32  1  0
 32 33  1  0
 33 34  2  0
 33 35  1  0
 35 36  1  0
 35 37  1  0
 37 38  1  0
 38 39  2  0
 38 40  1  0
 40 41  1  0
 40 42  1  0
 42 43  1  0
 43 44  2  0
 43 45  1  0
 45 46  1  0
 45 47  1  0
 47 48  1  0
 48 49  2  0
 48 50  1  0
 50 51  1  0
 51 52  1  0
 52 53  1  0
 50 54  1  0
 54 55  1  0
 55 56  2  0
 55 57  1  0
 57 58  1  0
 57 59  1  0
 59 60  1  0
 60 61  2  0
 60 62  1  0
 62 63  1  0
 62 64  1  0
 64 65  1  0
 65 66  2  0
 65 67  1  0
 67 68  1  0
 67 69  1  0
 69 70  1  0
 70 71  2  0
 70  5  1  0
 14  9  2  0
 53 11  1  0
  1 72  1  0
  1 73  1  0
  1 74  1  0
  4 75  1  0
  5 76  1  1
  6 77  1  0
  6 78  1  0
  8 79  1  0
  8 80  1  0
 10 81  1  0
 12 82  1  0
 14 83  1  0
 15 84  1  0
 15 85  1  0
 17 86  1  0
 17 87  1  0
 18 88  1  1
 20 89  1  0
 20 90  1  0
 22 91  1  0
 25 92  1  1
 26 93  1  0
 26 94  1  0
 26 95  1  0
 27 96  1  0
 30 97  1  6
 31 98  1  0
 31 99  1  0
 31100  1  0
 32101  1  0
 35102  1  6
 36103  1  0
 36104  1  0
 36105  1  0
 37106  1  0
 40107  1  1
 41108  1  0
 41109  1  0
 41110  1  0
 42111  1  0
 45112  1  6
 46113  1  0
 46114  1  0
 46115  1  0
 47116  1  0
 50117  1  6
 51118  1  0
 51119  1  0
 53120  1  0
 53121  1  0
 54122  1  0
 57123  1  1
 58124  1  0
 58125  1  0
 58126  1  0
 59127  1  0
 62128  1  1
 63129  1  0
 63130  1  0
 63131  1  0
 64132  1  0
 67133  1  6
 68134  1  0
 68135  1  0
 68136  1  0
 69137  1  0
M  END
