
     RDKit          3D

127129  0  0  0  0  0  0  0  0999 V2000
  -10.0345    4.9932    0.9155 C   0  0  0  0  0  0  0  0  0  0  0  0
   -8.6235    4.7669    1.3537 C   0  0  0  0  0  0  0  0  0  0  0  0
   -8.3281    4.9025    2.5714 O   0  0  0  0  0  0  0  0  0  0  0  0
   -7.6226    4.3736    0.4036 N   0  0  0  0  0  0  0  0  0  0  0  0
   -6.2954    3.8951    0.8086 C   0  0  2  0  0  0  0  0  0  0  0  0
   -5.2798    4.2106   -0.3063 C   0  0  0  0  0  0  0  0  0  0  0  0
   -3.5593    4.0565    0.3030 S   0  0  0  0  0  0  0  0  0  0  0  0
   -2.7732    3.8760   -1.3380 C   0  0  0  0  0  0  0  0  0  0  0  0
   -1.4251    3.2285   -1.1778 C   0  0  0  0  0  0  0  0  0  0  0  0
   -1.3353    1.9453   -0.6217 C   0  0  0  0  0  0  0  0  0  0  0  0
   -0.0900    1.3369   -0.4102 C   0  0  0  0  0  0  0  0  0  0  0  0
    1.0789    2.0201   -0.7920 C   0  0  0  0  0  0  0  0  0  0  0  0
    0.9987    3.2820   -1.3990 C   0  0  0  0  0  0  0  0  0  0  0  0
   -0.2538    3.8910   -1.5718 C   0  0  0  0  0  0  0  0  0  0  0  0
    2.2466    4.0058   -1.8221 C   0  0  0  0  0  0  0  0  0  0  0  0
    2.6066    5.3744   -0.6673 S   0  0  0  0  0  0  0  0  0  0  0  0
    3.5587    4.4032    0.5668 C   0  0  0  0  0  0  0  0  0  0  0  0
    5.0454    4.2557    0.1841 C   0  0  1  0  0  0  0  0  0  0  0  0
    5.6545    5.6117   -0.0869 C   0  0  0  0  0  0  0  0  0  0  0  0
    5.9173    6.0338   -1.4278 N   0  0  0  0  0  0  0  0  0  0  0  0
    5.8934    6.3958    0.8721 O   0  0  0  0  0  0  0  0  0  0  0  0
    5.7774    3.6026    1.2769 N   0  0  0  0  0  0  0  0  0  0  0  0
    7.1272    3.1384    1.1319 C   0  0  0  0  0  0  0  0  0  0  0  0
    7.9911    3.5166    1.9683 O   0  0  0  0  0  0  0  0  0  0  0  0
    7.5291    2.1948    0.0219 C   0  0  1  0  0  0  0  0  0  0  0  0
    8.0747    2.9712   -1.1820 C   0  0  0  0  0  0  0  0  0  0  0  0
    8.5693    1.2815    0.5082 N   0  0  0  0  0  0  0  0  0  0  0  0
    8.3316   -0.0719    0.9223 C   0  0  0  0  0  0  0  0  0  0  0  0
    8.8665   -0.4714    1.9921 O   0  0  0  0  0  0  0  0  0  0  0  0
    7.4787   -1.0308    0.1117 C   0  0  1  0  0  0  0  0  0  0  0  0
    7.8434   -0.9648   -1.3749 C   0  0  0  0  0  0  0  0  0  0  0  0
    7.6991   -2.4070    0.5759 N   0  0  0  0  0  0  0  0  0  0  0  0
    6.6711   -3.3914    0.7829 C   0  0  0  0  0  0  0  0  0  0  0  0
    6.9149   -4.3489    1.5668 O   0  0  0  0  0  0  0  0  0  0  0  0
    5.3934   -3.4087   -0.0297 C   0  0  1  0  0  0  0  0  0  0  0  0
    5.4702   -4.4731   -1.1293 C   0  0  0  0  0  0  0  0  0  0  0  0
    4.2087   -3.6086    0.8174 N   0  0  0  0  0  0  0  0  0  0  0  0
    3.7881   -4.8843    1.3208 C   0  0  0  0  0  0  0  0  0  0  0  0
    4.5839   -5.5869    2.0046 O   0  0  0  0  0  0  0  0  0  0  0  0
    2.3740   -5.3485    1.0805 C   0  0  1  0  0  0  0  0  0  0  0  0
    2.2647   -6.8750    1.1113 C   0  0  0  0  0  0  0  0  0  0  0  0
    1.4796   -4.7667    2.0855 N   0  0  0  0  0  0  0  0  0  0  0  0
    0.7555   -3.5355    1.9109 C   0  0  0  0  0  0  0  0  0  0  0  0
    0.7868   -2.6881    2.8447 O   0  0  0  0  0  0  0  0  0  0  0  0
   -0.1083   -3.2300    0.6997 C   0  0  1  0  0  0  0  0  0  0  0  0
    0.6735   -2.5272   -0.4313 C   0  0  0  0  0  0  0  0  0  0  0  0
    1.4630   -0.9595    0.0952 S   0  0  0  0  0  0  0  0  0  0  0  0
   -0.0607    0.0336    0.3495 C   0  0  0  0  0  0  0  0  0  0  0  0
   -0.7643   -4.4444    0.1926 N   0  0  0  0  0  0  0  0  0  0  0  0
   -2.1816   -4.6272   -0.0210 C   0  0  0  0  0  0  0  0  0  0  0  0
   -2.5730   -5.7323   -0.4848 O   0  0  0  0  0  0  0  0  0  0  0  0
   -3.2096   -3.5347    0.2276 C   0  0  1  0  0  0  0  0  0  0  0  0
   -3.2142   -2.5293   -0.9259 C   0  0  0  0  0  0  0  0  0  0  0  0
   -4.5579   -4.0999    0.3448 N   0  0  0  0  0  0  0  0  0  0  0  0
   -5.5552   -3.4251    1.1196 C   0  0  0  0  0  0  0  0  0  0  0  0
   -5.3762   -3.2718    2.3606 O   0  0  0  0  0  0  0  0  0  0  0  0
   -6.7785   -2.8476    0.4481 C   0  0  1  0  0  0  0  0  0  0  0  0
   -7.6168   -3.9369   -0.2293 C   0  0  0  0  0  0  0  0  0  0  0  0
   -7.6181   -2.1254    1.4169 N   0  0  0  0  0  0  0  0  0  0  0  0
   -7.9871   -0.7372    1.3407 C   0  0  0  0  0  0  0  0  0  0  0  0
   -8.8922   -0.3138    2.1116 O   0  0  0  0  0  0  0  0  0  0  0  0
   -7.3738    0.2198    0.3391 C   0  0  1  0  0  0  0  0  0  0  0  0
   -8.0824    0.1090   -1.0133 C   0  0  0  0  0  0  0  0  0  0  0  0
   -7.4806    1.6035    0.8181 N   0  0  0  0  0  0  0  0  0  0  0  0
   -6.3215    2.4047    1.1020 C   0  0  0  0  0  0  0  0  0  0  0  0
   -5.2933    1.8567    1.5824 O   0  0  0  0  0  0  0  0  0  0  0  0
  -10.1432    4.8171   -0.1748 H   0  0  0  0  0  0  0  0  0  0  0  0
  -10.7015    4.2945    1.4604 H   0  0  0  0  0  0  0  0  0  0  0  0
  -10.3314    6.0385    1.1406 H   0  0  0  0  0  0  0  0  0  0  0  0
   -7.9010    4.2691   -0.5980 H   0  0  0  0  0  0  0  0  0  0  0  0
   -5.9810    4.4341    1.7297 H   0  0  0  0  0  0  0  0  0  0  0  0
   -5.4222    5.2554   -0.6562 H   0  0  0  0  0  0  0  0  0  0  0  0
   -5.4644    3.5287   -1.1630 H   0  0  0  0  0  0  0  0  0  0  0  0
   -3.3843    3.2293   -2.0029 H   0  0  0  0  0  0  0  0  0  0  0  0
   -2.6859    4.8842   -1.7970 H   0  0  0  0  0  0  0  0  0  0  0  0
   -2.2437    1.4305   -0.3244 H   0  0  0  0  0  0  0  0  0  0  0  0
    2.0551    1.5837   -0.6224 H   0  0  0  0  0  0  0  0  0  0  0  0
   -0.3145    4.8825   -2.0104 H   0  0  0  0  0  0  0  0  0  0  0  0
    3.1101    3.3134   -1.9116 H   0  0  0  0  0  0  0  0  0  0  0  0
    2.0759    4.4439   -2.8269 H   0  0  0  0  0  0  0  0  0  0  0  0
    3.1044    3.4001    0.7107 H   0  0  0  0  0  0  0  0  0  0  0  0
    3.4796    4.9446    1.5344 H   0  0  0  0  0  0  0  0  0  0  0  0
    5.1056    3.6218   -0.7235 H   0  0  0  0  0  0  0  0  0  0  0  0
    5.7452    5.3948   -2.2348 H   0  0  0  0  0  0  0  0  0  0  0  0
    6.3017    6.9885   -1.6072 H   0  0  0  0  0  0  0  0  0  0  0  0
    5.4758    3.8214    2.2532 H   0  0  0  0  0  0  0  0  0  0  0  0
    6.6308    1.6240   -0.2965 H   0  0  0  0  0  0  0  0  0  0  0  0
    7.3068    3.6475   -1.5988 H   0  0  0  0  0  0  0  0  0  0  0  0
    8.3807    2.2638   -1.9805 H   0  0  0  0  0  0  0  0  0  0  0  0
    8.9598    3.5741   -0.8863 H   0  0  0  0  0  0  0  0  0  0  0  0
    9.4832    1.7043    0.7963 H   0  0  0  0  0  0  0  0  0  0  0  0
    6.4179   -0.7383    0.2501 H   0  0  0  0  0  0  0  0  0  0  0  0
    7.5758    0.0197   -1.8049 H   0  0  0  0  0  0  0  0  0  0  0  0
    7.2768   -1.7349   -1.9373 H   0  0  0  0  0  0  0  0  0  0  0  0
    8.9306   -1.1414   -1.5201 H   0  0  0  0  0  0  0  0  0  0  0  0
    8.6846   -2.7224    0.7202 H   0  0  0  0  0  0  0  0  0  0  0  0
    5.2699   -2.4383   -0.5503 H   0  0  0  0  0  0  0  0  0  0  0  0
    4.5230   -4.4837   -1.7094 H   0  0  0  0  0  0  0  0  0  0  0  0
    5.6345   -5.4820   -0.6943 H   0  0  0  0  0  0  0  0  0  0  0  0
    6.3068   -4.2449   -1.8233 H   0  0  0  0  0  0  0  0  0  0  0  0
    3.5232   -2.8230    0.8671 H   0  0  0  0  0  0  0  0  0  0  0  0
    2.0869   -5.0329    0.0651 H   0  0  0  0  0  0  0  0  0  0  0  0
    2.9458   -7.3237    0.3555 H   0  0  0  0  0  0  0  0  0  0  0  0
    1.2223   -7.1836    0.8751 H   0  0  0  0  0  0  0  0  0  0  0  0
    2.5296   -7.2701    2.1146 H   0  0  0  0  0  0  0  0  0  0  0  0
    1.6334   -5.0742    3.0713 H   0  0  0  0  0  0  0  0  0  0  0  0
   -0.8790   -2.5242    1.0520 H   0  0  0  0  0  0  0  0  0  0  0  0
    1.4689   -3.1807   -0.8310 H   0  0  0  0  0  0  0  0  0  0  0  0
    0.0044   -2.3166   -1.2879 H   0  0  0  0  0  0  0  0  0  0  0  0
   -0.9548   -0.5498    0.0631 H   0  0  0  0  0  0  0  0  0  0  0  0
   -0.1443    0.2513    1.4357 H   0  0  0  0  0  0  0  0  0  0  0  0
   -0.1542   -5.2326   -0.1189 H   0  0  0  0  0  0  0  0  0  0  0  0
   -2.9701   -3.0097    1.1740 H   0  0  0  0  0  0  0  0  0  0  0  0
   -3.9133   -1.6977   -0.6994 H   0  0  0  0  0  0  0  0  0  0  0  0
   -3.5427   -3.0231   -1.8677 H   0  0  0  0  0  0  0  0  0  0  0  0
   -2.2137   -2.0971   -1.0875 H   0  0  0  0  0  0  0  0  0  0  0  0
   -4.8915   -4.7258   -0.4248 H   0  0  0  0  0  0  0  0  0  0  0  0
   -6.4152   -2.1687   -0.3513 H   0  0  0  0  0  0  0  0  0  0  0  0
   -7.0663   -4.3796   -1.0869 H   0  0  0  0  0  0  0  0  0  0  0  0
   -8.5532   -3.4874   -0.6323 H   0  0  0  0  0  0  0  0  0  0  0  0
   -7.8811   -4.7370    0.4930 H   0  0  0  0  0  0  0  0  0  0  0  0
   -8.0432   -2.6918    2.1879 H   0  0  0  0  0  0  0  0  0  0  0  0
   -6.3020   -0.0355    0.2025 H   0  0  0  0  0  0  0  0  0  0  0  0
   -8.0355   -0.9242   -1.4088 H   0  0  0  0  0  0  0  0  0  0  0  0
   -9.1489    0.4021   -0.9198 H   0  0  0  0  0  0  0  0  0  0  0  0
   -7.5883    0.7864   -1.7433 H   0  0  0  0  0  0  0  0  0  0  0  0
   -8.4285    2.0376    0.8641 H   0  0  0  0  0  0  0  0  0  0  0  0
  1  2  1  0
  2  3  2  0
  2  4  1  0
  4  5  1  0
  5  6  1  0
  6  7  1  0
  7  8  1  0
  8  9  1  0
  9 10  1  0
 10 11  2  0
 11 12  1  0
 12 13  2  0
 13 14  1  0
 13 15  1  0
 15 16  1  0
 16 17  1  0
 17 18  1  0
 18 19  1  0
 19 20  1  0
 19 21  2  0
 18 22  1  0
 22 23  1  0
 23 24  2  0
 23 25  1  0
 25 26  1  0
 25 27  1  0
 27 28  1  0
 28 29  2  0
 28 30  1  0
 30 31  1  0
 30 32  1  0
 32 33  1  0
 33 34  2  0
 33 35  1  0
 35 36  1  0
 35 37  1  0
 37 38  1  0
 38 39  2  0
 38 40  1  0
 40 41  1  0
 40 42  1  0
 42 43  1  0
 43 44  2  0
 43 45  1  0
 45 46  1  0
 46 47  1  0
 47 48  1  0
 45 49  1  0
 49 50  1  0
 50 51  2  0
 50 52  1  0
 52 53  1  0
 52 54  1  0
 54 55  1  0
 55 56  2  0
 55 57  1  0
 57 58  1  0
 57 59  1  0
 59 60  1  0
 60 61  2  0
 60 62  1  0
 62 63  1  0
 62 64  1  0
 64 65  1  0
 65 66  2  0
 65  5  1  0
 14  9  2  0
 48 11  1  0
  1 67  1  0
  1 68  1  0
  1 69  1  0
  4 70  1  0
  5 71  1  1
  6 72  1  0
  6 73  1  0
  8 74  1  0
  8 75  1  0
 10 76  1  0
 12 77  1  0
 14 78  1  0
 15 79  1  0
 15 80  1  0
 17 81  1  0
 17 82  1  0
 18 83  1  6
 20 84  1  0
 20 85  1  0
 22 86  1  0
 25 87  1  6
 26 88  1  0
 26 89  1  0
 26 90  1  0
 27 91  1  0
 30 92  1  6
 31 93  1  0
 31 94  1  0
 31 95  1  0
 32 96  1  0
 35 97  1  6
 36 98  1  0
 36 99  1  0
 36100  1  0
 37101  1  0
 40102  1  6
 41103  1  0
 41104  1  0
 41105  1  0
 42106  1  0
 45107  1  1
 46108  1  0
 46109  1  0
 48110  1  0
 48111  1  0
 49112  1  0
 52113  1  1
 53114  1  0
 53115  1  0
 53116  1  0
 54117  1  0
 57118  1  6
 58119  1  0
 58120  1  0
 58121  1  0
 59122  1  0
 62123  1  6
 63124  1  0
 63125  1  0
 63126  1  0
 64127  1  0
M  END
