
     RDKit          3D

137139  0  0  0  0  0  0  0  0999 V2000
   -9.7471    3.8274   -0.0587 C   0  0  0  0  0  0  0  0  0  0  0  0
   -8.7667    4.6674    0.6957 C   0  0  0  0  0  0  0  0  0  0  0  0
   -9.1784    5.7017    1.2859 O   0  0  0  0  0  0  0  0  0  0  0  0
   -7.3722    4.3009    0.8135 N   0  0  0  0  0  0  0  0  0  0  0  0
   -6.7706    3.1287    0.1508 C   0  0  1  0  0  0  0  0  0  0  0  0
   -5.2409    3.0894    0.3629 C   0  0  0  0  0  0  0  0  0  0  0  0
   -4.7565    3.2754    2.1263 S   0  0  0  0  0  0  0  0  0  0  0  0
   -3.4711    1.9737    2.1821 C   0  0  0  0  0  0  0  0  0  0  0  0
   -2.3582    2.2364    1.2021 C   0  0  0  0  0  0  0  0  0  0  0  0
   -1.5667    3.3871    1.3065 C   0  0  0  0  0  0  0  0  0  0  0  0
   -0.5228    3.6223    0.3937 C   0  0  0  0  0  0  0  0  0  0  0  0
   -0.2454    2.6668   -0.5957 C   0  0  0  0  0  0  0  0  0  0  0  0
   -1.0140    1.4966   -0.6915 C   0  0  0  0  0  0  0  0  0  0  0  0
   -2.0857    1.3020    0.1880 C   0  0  0  0  0  0  0  0  0  0  0  0
   -0.6311    0.4254   -1.6714 C   0  0  0  0  0  0  0  0  0  0  0  0
    0.4254   -0.8260   -0.8476 S   0  0  0  0  0  0  0  0  0  0  0  0
   -0.8975   -2.0881   -0.6801 C   0  0  0  0  0  0  0  0  0  0  0  0
   -0.3817   -3.3995   -0.0420 C   0  0  1  0  0  0  0  0  0  0  0  0
   -1.4906   -4.3255    0.2199 N   0  0  0  0  0  0  0  0  0  0  0  0
   -2.7742   -3.8910    0.6745 C   0  0  0  0  0  0  0  0  0  0  0  0
   -2.8701   -3.3071    1.7875 O   0  0  0  0  0  0  0  0  0  0  0  0
   -3.9968   -4.0650   -0.1868 C   0  0  1  0  0  0  0  0  0  0  0  0
   -3.7106   -4.9133   -1.4412 C   0  0  0  0  0  0  0  0  0  0  0  0
   -5.0594   -4.7018    0.6043 N   0  0  0  0  0  0  0  0  0  0  0  0
   -6.3560   -4.1446    0.8928 C   0  0  0  0  0  0  0  0  0  0  0  0
   -7.2231   -4.8944    1.4272 O   0  0  0  0  0  0  0  0  0  0  0  0
   -6.7291   -2.6964    0.6230 C   0  0  1  0  0  0  0  0  0  0  0  0
   -5.8621   -1.7327    1.4539 C   0  0  0  0  0  0  0  0  0  0  0  0
   -6.6749   -2.4005   -0.8130 N   0  0  0  0  0  0  0  0  0  0  0  0
   -7.3645   -1.2893   -1.3922 C   0  0  0  0  0  0  0  0  0  0  0  0
   -8.3558   -1.5020   -2.1437 O   0  0  0  0  0  0  0  0  0  0  0  0
   -6.8811    0.1217   -1.1587 C   0  0  1  0  0  0  0  0  0  0  0  0
   -6.7245    0.8416   -2.5055 C   0  0  0  0  0  0  0  0  0  0  0  0
   -7.8223    0.8282   -0.2820 N   0  0  0  0  0  0  0  0  0  0  0  0
   -7.3935    1.8398    0.6398 C   0  0  0  0  0  0  0  0  0  0  0  0
   -7.6011    1.6797    1.8719 O   0  0  0  0  0  0  0  0  0  0  0  0
    0.6657   -4.0807   -0.9124 C   0  0  0  0  0  0  0  0  0  0  0  0
    1.0076   -3.5893   -2.0239 O   0  0  0  0  0  0  0  0  0  0  0  0
    1.3038   -5.2857   -0.4724 N   0  0  0  0  0  0  0  0  0  0  0  0
    2.7454   -5.3066   -0.2130 C   0  0  2  0  0  0  0  0  0  0  0  0
    3.3047   -6.6916   -0.5449 C   0  0  0  0  0  0  0  0  0  0  0  0
    3.0029   -4.9718    1.2330 C   0  0  0  0  0  0  0  0  0  0  0  0
    2.1597   -5.2994    2.1157 O   0  0  0  0  0  0  0  0  0  0  0  0
    4.2463   -4.3927    1.6431 N   0  0  0  0  0  0  0  0  0  0  0  0
    4.5268   -2.9548    1.5775 C   0  0  2  0  0  0  0  0  0  0  0  0
    3.4408   -2.1540    2.3208 C   0  0  0  0  0  0  0  0  0  0  0  0
    4.6772   -2.5023    0.1495 C   0  0  0  0  0  0  0  0  0  0  0  0
    3.6598   -2.0666   -0.4619 O   0  0  0  0  0  0  0  0  0  0  0  0
    5.9196   -2.6044   -0.5799 N   0  0  0  0  0  0  0  0  0  0  0  0
    7.2639   -2.8121   -0.0238 C   0  0  2  0  0  0  0  0  0  0  0  0
    7.4307   -4.2415    0.5259 C   0  0  0  0  0  0  0  0  0  0  0  0
    7.6261   -1.7213    0.9703 C   0  0  0  0  0  0  0  0  0  0  0  0
    7.9992   -2.0376    2.1338 O   0  0  0  0  0  0  0  0  0  0  0  0
    7.5810   -0.3290    0.6217 N   0  0  0  0  0  0  0  0  0  0  0  0
    7.5193    0.2028   -0.7445 C   0  0  2  0  0  0  0  0  0  0  0  0
    8.8175    0.9468   -1.0635 C   0  0  0  0  0  0  0  0  0  0  0  0
    6.3185    1.1023   -0.8818 C   0  0  0  0  0  0  0  0  0  0  0  0
    5.4031    0.7921   -1.6907 O   0  0  0  0  0  0  0  0  0  0  0  0
    6.1760    2.2721   -0.0721 N   0  0  0  0  0  0  0  0  0  0  0  0
    6.5770    3.5920   -0.5624 C   0  0  2  0  0  0  0  0  0  0  0  0
    6.8288    4.5359    0.6172 C   0  0  0  0  0  0  0  0  0  0  0  0
    5.5868    4.1014   -1.5879 C   0  0  0  0  0  0  0  0  0  0  0  0
    5.5191    3.4999   -2.6929 O   0  0  0  0  0  0  0  0  0  0  0  0
    4.8262    5.3102   -1.4342 N   0  0  0  0  0  0  0  0  0  0  0  0
    3.8499    5.5625   -0.3616 C   0  0  1  0  0  0  0  0  0  0  0  0
    3.0060    6.7686   -0.7214 C   0  0  0  0  0  0  0  0  0  0  0  0
    2.2502    6.7943   -1.9356 N   0  0  0  0  0  0  0  0  0  0  0  0
    2.9703    7.7635    0.0547 O   0  0  0  0  0  0  0  0  0  0  0  0
    2.9470    4.3358   -0.1142 C   0  0  0  0  0  0  0  0  0  0  0  0
    1.8694    4.5899    1.3534 S   0  0  0  0  0  0  0  0  0  0  0  0
    0.2971    4.8830    0.4675 C   0  0  0  0  0  0  0  0  0  0  0  0
   -9.8044    2.8183    0.3955 H   0  0  0  0  0  0  0  0  0  0  0  0
  -10.7589    4.2707   -0.0028 H   0  0  0  0  0  0  0  0  0  0  0  0
   -9.4466    3.7493   -1.1252 H   0  0  0  0  0  0  0  0  0  0  0  0
   -6.7677    4.9589    1.3449 H   0  0  0  0  0  0  0  0  0  0  0  0
   -6.9667    3.2344   -0.9337 H   0  0  0  0  0  0  0  0  0  0  0  0
   -4.8533    2.1458   -0.0638 H   0  0  0  0  0  0  0  0  0  0  0  0
   -4.7705    3.9145   -0.1975 H   0  0  0  0  0  0  0  0  0  0  0  0
   -3.9477    0.9808    2.0087 H   0  0  0  0  0  0  0  0  0  0  0  0
   -3.0395    1.9577    3.2134 H   0  0  0  0  0  0  0  0  0  0  0  0
   -1.7623    4.1082    2.0927 H   0  0  0  0  0  0  0  0  0  0  0  0
    0.5711    2.8167   -1.2909 H   0  0  0  0  0  0  0  0  0  0  0  0
   -2.6967    0.4112    0.1123 H   0  0  0  0  0  0  0  0  0  0  0  0
   -0.0604    0.8695   -2.5093 H   0  0  0  0  0  0  0  0  0  0  0  0
   -1.5373   -0.0172   -2.1379 H   0  0  0  0  0  0  0  0  0  0  0  0
   -1.7002   -1.6520   -0.0513 H   0  0  0  0  0  0  0  0  0  0  0  0
   -1.3312   -2.3061   -1.6846 H   0  0  0  0  0  0  0  0  0  0  0  0
    0.0998   -3.1531    0.9369 H   0  0  0  0  0  0  0  0  0  0  0  0
   -1.2863   -5.3309    0.4190 H   0  0  0  0  0  0  0  0  0  0  0  0
   -4.2887   -3.0641   -0.5365 H   0  0  0  0  0  0  0  0  0  0  0  0
   -2.9378   -4.4144   -2.0669 H   0  0  0  0  0  0  0  0  0  0  0  0
   -3.3560   -5.9228   -1.1528 H   0  0  0  0  0  0  0  0  0  0  0  0
   -4.6409   -5.0139   -2.0391 H   0  0  0  0  0  0  0  0  0  0  0  0
   -4.8694   -5.6689    0.9520 H   0  0  0  0  0  0  0  0  0  0  0  0
   -7.7842   -2.5675    0.9705 H   0  0  0  0  0  0  0  0  0  0  0  0
   -6.3940   -0.7702    1.5923 H   0  0  0  0  0  0  0  0  0  0  0  0
   -5.6652   -2.1468    2.4633 H   0  0  0  0  0  0  0  0  0  0  0  0
   -4.8870   -1.5277    0.9620 H   0  0  0  0  0  0  0  0  0  0  0  0
   -6.4815   -3.1959   -1.4632 H   0  0  0  0  0  0  0  0  0  0  0  0
   -5.8837    0.0877   -0.6760 H   0  0  0  0  0  0  0  0  0  0  0  0
   -6.1698    0.1991   -3.2231 H   0  0  0  0  0  0  0  0  0  0  0  0
   -7.7199    1.0861   -2.9431 H   0  0  0  0  0  0  0  0  0  0  0  0
   -6.1355    1.7776   -2.3874 H   0  0  0  0  0  0  0  0  0  0  0  0
   -8.7365    0.3703   -0.0667 H   0  0  0  0  0  0  0  0  0  0  0  0
    0.7284   -6.0282   -0.0299 H   0  0  0  0  0  0  0  0  0  0  0  0
    3.2598   -4.5790   -0.8775 H   0  0  0  0  0  0  0  0  0  0  0  0
    2.8080   -7.4686    0.0825 H   0  0  0  0  0  0  0  0  0  0  0  0
    3.1216   -6.9369   -1.6159 H   0  0  0  0  0  0  0  0  0  0  0  0
    4.3999   -6.7168   -0.3588 H   0  0  0  0  0  0  0  0  0  0  0  0
    4.8238   -4.9614    2.3077 H   0  0  0  0  0  0  0  0  0  0  0  0
    5.4632   -2.7502    2.1331 H   0  0  0  0  0  0  0  0  0  0  0  0
    2.4367   -2.3094    1.8603 H   0  0  0  0  0  0  0  0  0  0  0  0
    3.3971   -2.4827    3.3877 H   0  0  0  0  0  0  0  0  0  0  0  0
    3.6892   -1.0678    2.3032 H   0  0  0  0  0  0  0  0  0  0  0  0
    5.8604   -2.4306   -1.6101 H   0  0  0  0  0  0  0  0  0  0  0  0
    7.9936   -2.7366   -0.8589 H   0  0  0  0  0  0  0  0  0  0  0  0
    8.5137   -4.4765    0.6366 H   0  0  0  0  0  0  0  0  0  0  0  0
    6.9727   -4.9783   -0.1732 H   0  0  0  0  0  0  0  0  0  0  0  0
    6.9714   -4.3588    1.5214 H   0  0  0  0  0  0  0  0  0  0  0  0
    7.7087    0.3558    1.4013 H   0  0  0  0  0  0  0  0  0  0  0  0
    7.4313   -0.6147   -1.4878 H   0  0  0  0  0  0  0  0  0  0  0  0
    9.0186    1.7379   -0.3032 H   0  0  0  0  0  0  0  0  0  0  0  0
    9.6723    0.2385   -1.0640 H   0  0  0  0  0  0  0  0  0  0  0  0
    8.7592    1.4187   -2.0698 H   0  0  0  0  0  0  0  0  0  0  0  0
    5.5206    2.2104    0.7380 H   0  0  0  0  0  0  0  0  0  0  0  0
    7.5479    3.5035   -1.0867 H   0  0  0  0  0  0  0  0  0  0  0  0
    6.9898    5.5821    0.2672 H   0  0  0  0  0  0  0  0  0  0  0  0
    7.7429    4.2132    1.1581 H   0  0  0  0  0  0  0  0  0  0  0  0
    5.9882    4.5114    1.3436 H   0  0  0  0  0  0  0  0  0  0  0  0
    4.8192    5.9460   -2.2636 H   0  0  0  0  0  0  0  0  0  0  0  0
    4.3905    5.8093    0.5726 H   0  0  0  0  0  0  0  0  0  0  0  0
    1.7038    7.6486   -2.1965 H   0  0  0  0  0  0  0  0  0  0  0  0
    2.2586    5.9653   -2.5814 H   0  0  0  0  0  0  0  0  0  0  0  0
    2.3816    4.0846   -1.0371 H   0  0  0  0  0  0  0  0  0  0  0  0
    3.5861    3.4626    0.1166 H   0  0  0  0  0  0  0  0  0  0  0  0
    0.4579    5.2969   -0.5456 H   0  0  0  0  0  0  0  0  0  0  0  0
   -0.2606    5.6601    1.0321 H   0  0  0  0  0  0  0  0  0  0  0  0
  1  2  1  0
  2  3  2  0
  2  4  1  0
  4  5  1  0
  5  6  1  0
  6  7  1  0
  7  8  1  0
  8  9  1  0
  9 10  1  0
 10 11  2  0
 11 12  1  0
 12 13  2  0
 13 14  1  0
 13 15  1  0
 15 16  1  0
 16 17  1  0
 17 18  1  0
 18 19  1  0
 19 20  1  0
 20 21  2  0
 20 22  1  0
 22 23  1  0
 22 24  1  0
 24 25  1  0
 25 26  2  0
 25 27  1  0
 27 28  1  0
 27 29  1  0
 29 30  1  0
 30 31  2  0
 30 32  1  0
 32 33  1  0
 32 34  1  0
 34 35  1  0
 35 36  2  0
 18 37  1  0
 37 38  2  0
 37 39  1  0
 39 40  1  0
 40 41  1  0
 40 42  1  0
 42 43  2  0
 42 44  1  0
 44 45  1  0
 45 46  1  0
 45 47  1  0
 47 48  2  0
 47 49  1  0
 49 50  1  0
 50 51  1  0
 50 52  1  0
 52 53  2  0
 52 54  1  0
 54 55  1  0
 55 56  1  0
 55 57  1  0
 57 58  2  0
 57 59  1  0
 59 60  1  0
 60 61  1  0
 60 62  1  0
 62 63  2  0
 62 64  1  0
 64 65  1  0
 65 66  1  0
 66 67  1  0
 66 68  2  0
 65 69  1  0
 69 70  1  0
 70 71  1  0
 35  5  1  0
 14  9  2  0
 71 11  1  0
  1 72  1  0
  1 73  1  0
  1 74  1  0
  4 75  1  0
  5 76  1  6
  6 77  1  0
  6 78  1  0
  8 79  1  0
  8 80  1  0
 10 81  1  0
 12 82  1  0
 14 83  1  0
 15 84  1  0
 15 85  1  0
 17 86  1  0
 17 87  1  0
 18 88  1  1
 19 89  1  0
 22 90  1  6
 23 91  1  0
 23 92  1  0
 23 93  1  0
 24 94  1  0
 27 95  1  1
 28 96  1  0
 28 97  1  0
 28 98  1  0
 29 99  1  0
 32100  1  1
 33101  1  0
 33102  1  0
 33103  1  0
 34104  1  0
 39105  1  0
 40106  1  6
 41107  1  0
 41108  1  0
 41109  1  0
 44110  1  0
 45111  1  1
 46112  1  0
 46113  1  0
 46114  1  0
 49115  1  0
 50116  1  6
 51117  1  0
 51118  1  0
 51119  1  0
 54120  1  0
 55121  1  6
 56122  1  0
 56123  1  0
 56124  1  0
 59125  1  0
 60126  1  6
 61127  1  0
 61128  1  0
 61129  1  0
 64130  1  0
 65131  1  1
 67132  1  0
 67133  1  0
 69134  1  0
 69135  1  0
 71136  1  0
 71137  1  0
M  END
