
     RDKit          3D

167169  0  0  0  0  0  0  0  0999 V2000
    9.7977   -4.2578    0.7589 C   0  0  0  0  0  0  0  0  0  0  0  0
    9.5167   -3.1538    1.7293 C   0  0  0  0  0  0  0  0  0  0  0  0
    9.7511   -3.3459    2.9572 O   0  0  0  0  0  0  0  0  0  0  0  0
    9.0307   -1.8667    1.3093 N   0  0  0  0  0  0  0  0  0  0  0  0
    8.0427   -1.6315    0.2449 C   0  0  2  0  0  0  0  0  0  0  0  0
    6.7289   -2.3852    0.5373 C   0  0  0  0  0  0  0  0  0  0  0  0
    6.1044   -1.9584    2.2050 S   0  0  0  0  0  0  0  0  0  0  0  0
    4.8271   -3.2764    2.2760 C   0  0  0  0  0  0  0  0  0  0  0  0
    3.5940   -2.9422    1.4786 C   0  0  0  0  0  0  0  0  0  0  0  0
    3.0234   -3.9086    0.6306 C   0  0  0  0  0  0  0  0  0  0  0  0
    1.8517   -3.6316   -0.0906 C   0  0  0  0  0  0  0  0  0  0  0  0
    1.2715   -2.3614    0.0095 C   0  0  0  0  0  0  0  0  0  0  0  0
    1.8677   -1.3659    0.7874 C   0  0  0  0  0  0  0  0  0  0  0  0
    3.0092   -1.6647    1.5468 C   0  0  0  0  0  0  0  0  0  0  0  0
    1.3797    0.0459    0.6728 C   0  0  0  0  0  0  0  0  0  0  0  0
    2.0663    0.7926   -0.8518 S   0  0  0  0  0  0  0  0  0  0  0  0
    3.4009    1.7770   -0.0645 C   0  0  0  0  0  0  0  0  0  0  0  0
    2.8693    3.1626    0.3650 C   0  0  1  0  0  0  0  0  0  0  0  0
    3.7900    3.8010    1.3227 N   0  0  0  0  0  0  0  0  0  0  0  0
    4.9142    4.6197    0.9601 C   0  0  0  0  0  0  0  0  0  0  0  0
    4.9538    5.8129    1.3670 O   0  0  0  0  0  0  0  0  0  0  0  0
    6.0747    4.0752    0.1683 C   0  0  1  0  0  0  0  0  0  0  0  0
    6.1390    4.7192   -1.2162 C   0  0  0  0  0  0  0  0  0  0  0  0
    7.3234    4.3324    0.8844 N   0  0  0  0  0  0  0  0  0  0  0  0
    8.2577    3.2848    1.1401 C   0  0  0  0  0  0  0  0  0  0  0  0
    8.1693    2.6197    2.2072 O   0  0  0  0  0  0  0  0  0  0  0  0
    9.3304    2.9794    0.1248 C   0  0  1  0  0  0  0  0  0  0  0  0
   10.2401    4.1934   -0.0783 C   0  0  0  0  0  0  0  0  0  0  0  0
   10.1422    1.8289    0.5576 N   0  0  0  0  0  0  0  0  0  0  0  0
   10.3936    0.6385   -0.2129 C   0  0  0  0  0  0  0  0  0  0  0  0
   11.2856   -0.1552    0.1892 O   0  0  0  0  0  0  0  0  0  0  0  0
    9.6887    0.3369   -1.5154 C   0  0  1  0  0  0  0  0  0  0  0  0
   10.4406    1.0044   -2.6743 C   0  0  0  0  0  0  0  0  0  0  0  0
    9.6052   -1.1148   -1.7384 N   0  0  0  0  0  0  0  0  0  0  0  0
    8.6165   -1.9572   -1.1167 C   0  0  0  0  0  0  0  0  0  0  0  0
    8.2338   -2.9902   -1.7310 O   0  0  0  0  0  0  0  0  0  0  0  0
    2.5621    4.0764   -0.8095 C   0  0  0  0  0  0  0  0  0  0  0  0
    2.8015    3.6891   -1.9855 O   0  0  0  0  0  0  0  0  0  0  0  0
    2.0485    5.4073   -0.6226 N   0  0  0  0  0  0  0  0  0  0  0  0
    0.8356    5.7645    0.1336 C   0  0  2  0  0  0  0  0  0  0  0  0
    1.1004    5.8161    1.6369 C   0  0  0  0  0  0  0  0  0  0  0  0
   -0.3273    4.8692   -0.2179 C   0  0  0  0  0  0  0  0  0  0  0  0
   -0.3366    3.6614    0.1399 O   0  0  0  0  0  0  0  0  0  0  0  0
   -1.4163    5.3600   -1.0086 N   0  0  0  0  0  0  0  0  0  0  0  0
   -2.5662    6.0889   -0.4610 C   0  0  2  0  0  0  0  0  0  0  0  0
   -2.1942    7.5415   -0.1468 C   0  0  0  0  0  0  0  0  0  0  0  0
   -3.1198    5.3896    0.7568 C   0  0  0  0  0  0  0  0  0  0  0  0
   -2.4434    5.4068    1.8247 O   0  0  0  0  0  0  0  0  0  0  0  0
   -4.4164    4.7622    0.7884 N   0  0  0  0  0  0  0  0  0  0  0  0
   -5.1341    4.0871   -0.3015 C   0  0  2  0  0  0  0  0  0  0  0  0
   -4.2119    3.4129   -1.3328 C   0  0  0  0  0  0  0  0  0  0  0  0
   -6.1423    5.0067   -0.9491 C   0  0  0  0  0  0  0  0  0  0  0  0
   -5.7694    6.0804   -1.4948 O   0  0  0  0  0  0  0  0  0  0  0  0
   -7.5265    4.6325   -1.0082 N   0  0  0  0  0  0  0  0  0  0  0  0
   -8.4784    4.9019    0.0764 C   0  0  2  0  0  0  0  0  0  0  0  0
   -7.8709    4.7267    1.4750 C   0  0  0  0  0  0  0  0  0  0  0  0
   -9.7132    4.0377   -0.0643 C   0  0  0  0  0  0  0  0  0  0  0  0
  -10.8249    4.5989   -0.2676 O   0  0  0  0  0  0  0  0  0  0  0  0
   -9.6888    2.6111    0.1323 N   0  0  0  0  0  0  0  0  0  0  0  0
   -8.6323    1.7313   -0.3858 C   0  0  2  0  0  0  0  0  0  0  0  0
   -8.9982    1.3044   -1.8092 C   0  0  0  0  0  0  0  0  0  0  0  0
   -8.4059    0.5781    0.5661 C   0  0  0  0  0  0  0  0  0  0  0  0
   -8.4293    0.8051    1.8091 O   0  0  0  0  0  0  0  0  0  0  0  0
   -7.9804   -0.7165    0.1148 N   0  0  0  0  0  0  0  0  0  0  0  0
   -8.9144   -1.7320   -0.3958 C   0  0  2  0  0  0  0  0  0  0  0  0
  -10.0655   -1.9500    0.6090 C   0  0  0  0  0  0  0  0  0  0  0  0
   -8.1520   -3.0050   -0.7216 C   0  0  0  0  0  0  0  0  0  0  0  0
   -7.1763   -2.9308   -1.5127 O   0  0  0  0  0  0  0  0  0  0  0  0
   -8.5010   -4.2752   -0.1465 N   0  0  0  0  0  0  0  0  0  0  0  0
   -7.5948   -5.4353   -0.1158 C   0  0  2  0  0  0  0  0  0  0  0  0
   -8.1857   -6.5419    0.7704 C   0  0  0  0  0  0  0  0  0  0  0  0
   -6.2258   -5.0408    0.3866 C   0  0  0  0  0  0  0  0  0  0  0  0
   -6.1038   -4.4905    1.5161 O   0  0  0  0  0  0  0  0  0  0  0  0
   -5.0625   -5.1868   -0.4439 N   0  0  0  0  0  0  0  0  0  0  0  0
   -4.3458   -6.4573   -0.6527 C   0  0  2  0  0  0  0  0  0  0  0  0
   -5.1325   -7.4040   -1.5591 C   0  0  0  0  0  0  0  0  0  0  0  0
   -4.0049   -7.1053    0.6701 C   0  0  0  0  0  0  0  0  0  0  0  0
   -4.9451   -7.5210    1.4069 O   0  0  0  0  0  0  0  0  0  0  0  0
   -2.6509   -7.2535    1.1435 N   0  0  0  0  0  0  0  0  0  0  0  0
   -1.4315   -7.4387    0.3307 C   0  0  1  0  0  0  0  0  0  0  0  0
   -1.6701   -8.4112   -0.8058 C   0  0  0  0  0  0  0  0  0  0  0  0
   -2.1555   -9.7253   -0.5198 N   0  0  0  0  0  0  0  0  0  0  0  0
   -1.4456   -8.0806   -1.9978 O   0  0  0  0  0  0  0  0  0  0  0  0
   -0.8287   -6.0821   -0.1111 C   0  0  0  0  0  0  0  0  0  0  0  0
    0.9933   -6.2456   -0.2890 S   0  0  0  0  0  0  0  0  0  0  0  0
    1.3184   -4.6330   -1.0795 C   0  0  0  0  0  0  0  0  0  0  0  0
   10.2382   -5.1337    1.2924 H   0  0  0  0  0  0  0  0  0  0  0  0
   10.5228   -3.9012   -0.0011 H   0  0  0  0  0  0  0  0  0  0  0  0
    8.8658   -4.5933    0.2636 H   0  0  0  0  0  0  0  0  0  0  0  0
    9.2536   -1.0534    1.9277 H   0  0  0  0  0  0  0  0  0  0  0  0
    7.7775   -0.5470    0.2584 H   0  0  0  0  0  0  0  0  0  0  0  0
    6.8929   -3.4818    0.4773 H   0  0  0  0  0  0  0  0  0  0  0  0
    5.9581   -2.0962   -0.2119 H   0  0  0  0  0  0  0  0  0  0  0  0
    5.2686   -4.2362    1.9404 H   0  0  0  0  0  0  0  0  0  0  0  0
    4.5434   -3.4152    3.3359 H   0  0  0  0  0  0  0  0  0  0  0  0
    3.4957   -4.8774    0.5363 H   0  0  0  0  0  0  0  0  0  0  0  0
    0.3887   -2.1219   -0.5742 H   0  0  0  0  0  0  0  0  0  0  0  0
    3.4512   -0.8953    2.1665 H   0  0  0  0  0  0  0  0  0  0  0  0
    1.6362    0.6402    1.5683 H   0  0  0  0  0  0  0  0  0  0  0  0
    0.2700    0.0479    0.5810 H   0  0  0  0  0  0  0  0  0  0  0  0
    4.2191    1.8948   -0.8080 H   0  0  0  0  0  0  0  0  0  0  0  0
    3.8273    1.2382    0.8115 H   0  0  0  0  0  0  0  0  0  0  0  0
    1.9216    2.9785    0.9088 H   0  0  0  0  0  0  0  0  0  0  0  0
    3.4412    3.9077    2.3035 H   0  0  0  0  0  0  0  0  0  0  0  0
    5.9528    2.9813    0.0424 H   0  0  0  0  0  0  0  0  0  0  0  0
    7.0006    4.3106   -1.7815 H   0  0  0  0  0  0  0  0  0  0  0  0
    6.2565    5.8182   -1.1314 H   0  0  0  0  0  0  0  0  0  0  0  0
    5.2212    4.4991   -1.7958 H   0  0  0  0  0  0  0  0  0  0  0  0
    7.6043    5.3199    1.1099 H   0  0  0  0  0  0  0  0  0  0  0  0
    8.8251    2.7768   -0.8404 H   0  0  0  0  0  0  0  0  0  0  0  0
   10.6869    4.5121    0.8870 H   0  0  0  0  0  0  0  0  0  0  0  0
   11.0543    3.9420   -0.7861 H   0  0  0  0  0  0  0  0  0  0  0  0
    9.6592    5.0364   -0.5106 H   0  0  0  0  0  0  0  0  0  0  0  0
   10.6691    1.9249    1.4524 H   0  0  0  0  0  0  0  0  0  0  0  0
    8.6476    0.7288   -1.5088 H   0  0  0  0  0  0  0  0  0  0  0  0
   10.3899    2.1091   -2.5899 H   0  0  0  0  0  0  0  0  0  0  0  0
    9.9866    0.7075   -3.6473 H   0  0  0  0  0  0  0  0  0  0  0  0
   11.5107    0.6981   -2.6718 H   0  0  0  0  0  0  0  0  0  0  0  0
   10.1665   -1.5403   -2.5103 H   0  0  0  0  0  0  0  0  0  0  0  0
    2.3904    6.1324   -1.2983 H   0  0  0  0  0  0  0  0  0  0  0  0
    0.5625    6.7994   -0.1704 H   0  0  0  0  0  0  0  0  0  0  0  0
    2.0320    6.3882    1.8417 H   0  0  0  0  0  0  0  0  0  0  0  0
    1.1961    4.8043    2.0729 H   0  0  0  0  0  0  0  0  0  0  0  0
    0.2598    6.3317    2.1512 H   0  0  0  0  0  0  0  0  0  0  0  0
   -1.4770    5.0042   -1.9921 H   0  0  0  0  0  0  0  0  0  0  0  0
   -3.3429    6.1373   -1.2436 H   0  0  0  0  0  0  0  0  0  0  0  0
   -1.7296    8.0111   -1.0435 H   0  0  0  0  0  0  0  0  0  0  0  0
   -1.4777    7.6011    0.7003 H   0  0  0  0  0  0  0  0  0  0  0  0
   -3.1067    8.1178    0.1187 H   0  0  0  0  0  0  0  0  0  0  0  0
   -4.8317    4.6418    1.7412 H   0  0  0  0  0  0  0  0  0  0  0  0
   -5.6975    3.2504    0.1650 H   0  0  0  0  0  0  0  0  0  0  0  0
   -4.7863    2.6346   -1.8825 H   0  0  0  0  0  0  0  0  0  0  0  0
   -3.3624    2.9098   -0.8174 H   0  0  0  0  0  0  0  0  0  0  0  0
   -3.8238    4.1258   -2.0838 H   0  0  0  0  0  0  0  0  0  0  0  0
   -7.9296    4.5956   -1.9729 H   0  0  0  0  0  0  0  0  0  0  0  0
   -8.7925    5.9668   -0.0115 H   0  0  0  0  0  0  0  0  0  0  0  0
   -7.0671    5.4702    1.6375 H   0  0  0  0  0  0  0  0  0  0  0  0
   -8.6455    4.8991    2.2515 H   0  0  0  0  0  0  0  0  0  0  0  0
   -7.4678    3.6992    1.6123 H   0  0  0  0  0  0  0  0  0  0  0  0
  -10.6076    2.1496    0.3350 H   0  0  0  0  0  0  0  0  0  0  0  0
   -7.6721    2.2750   -0.4312 H   0  0  0  0  0  0  0  0  0  0  0  0
   -9.0766    2.2051   -2.4528 H   0  0  0  0  0  0  0  0  0  0  0  0
   -9.9796    0.7881   -1.8113 H   0  0  0  0  0  0  0  0  0  0  0  0
   -8.2154    0.6423   -2.2422 H   0  0  0  0  0  0  0  0  0  0  0  0
   -7.0222   -1.0201    0.4178 H   0  0  0  0  0  0  0  0  0  0  0  0
   -9.3643   -1.3757   -1.3479 H   0  0  0  0  0  0  0  0  0  0  0  0
  -10.5764   -0.9886    0.8334 H   0  0  0  0  0  0  0  0  0  0  0  0
  -10.8380   -2.6242    0.1803 H   0  0  0  0  0  0  0  0  0  0  0  0
   -9.6790   -2.3818    1.5588 H   0  0  0  0  0  0  0  0  0  0  0  0
   -9.5048   -4.4468    0.1078 H   0  0  0  0  0  0  0  0  0  0  0  0
   -7.5041   -5.8279   -1.1498 H   0  0  0  0  0  0  0  0  0  0  0  0
   -7.5533   -7.4527    0.7331 H   0  0  0  0  0  0  0  0  0  0  0  0
   -8.2552   -6.2018    1.8254 H   0  0  0  0  0  0  0  0  0  0  0  0
   -9.1997   -6.8128    0.4140 H   0  0  0  0  0  0  0  0  0  0  0  0
   -4.5700   -4.3102   -0.7259 H   0  0  0  0  0  0  0  0  0  0  0  0
   -3.4111   -6.2156   -1.1886 H   0  0  0  0  0  0  0  0  0  0  0  0
   -5.3620   -6.9042   -2.5169 H   0  0  0  0  0  0  0  0  0  0  0  0
   -4.5163   -8.3019   -1.7858 H   0  0  0  0  0  0  0  0  0  0  0  0
   -6.0704   -7.7383   -1.0796 H   0  0  0  0  0  0  0  0  0  0  0  0
   -2.5526   -7.4608    2.1676 H   0  0  0  0  0  0  0  0  0  0  0  0
   -0.6859   -7.9213    0.9929 H   0  0  0  0  0  0  0  0  0  0  0  0
   -2.3944  -10.0100    0.4593 H   0  0  0  0  0  0  0  0  0  0  0  0
   -2.2630  -10.4338   -1.2800 H   0  0  0  0  0  0  0  0  0  0  0  0
   -1.0403   -5.3016    0.6560 H   0  0  0  0  0  0  0  0  0  0  0  0
   -1.2642   -5.7395   -1.0776 H   0  0  0  0  0  0  0  0  0  0  0  0
    2.0935   -4.7834   -1.8620 H   0  0  0  0  0  0  0  0  0  0  0  0
    0.4069   -4.2491   -1.5945 H   0  0  0  0  0  0  0  0  0  0  0  0
  1  2  1  0
  2  3  2  0
  2  4  1  0
  4  5  1  0
  5  6  1  0
  6  7  1  0
  7  8  1  0
  8  9  1  0
  9 10  1  0
 10 11  2  0
 11 12  1  0
 12 13  2  0
 13 14  1  0
 13 15  1  0
 15 16  1  0
 16 17  1  0
 17 18  1  0
 18 19  1  0
 19 20  1  0
 20 21  2  0
 20 22  1  0
 22 23  1  0
 22 24  1  0
 24 25  1  0
 25 26  2  0
 25 27  1  0
 27 28  1  0
 27 29  1  0
 29 30  1  0
 30 31  2  0
 30 32  1  0
 32 33  1  0
 32 34  1  0
 34 35  1  0
 35 36  2  0
 18 37  1  0
 37 38  2  0
 37 39  1  0
 39 40  1  0
 40 41  1  0
 40 42  1  0
 42 43  2  0
 42 44  1  0
 44 45  1  0
 45 46  1  0
 45 47  1  0
 47 48  2  0
 47 49  1  0
 49 50  1  0
 50 51  1  0
 50 52  1  0
 52 53  2  0
 52 54  1  0
 54 55  1  0
 55 56  1  0
 55 57  1  0
 57 58  2  0
 57 59  1  0
 59 60  1  0
 60 61  1  0
 60 62  1  0
 62 63  2  0
 62 64  1  0
 64 65  1  0
 65 66  1  0
 65 67  1  0
 67 68  2  0
 67 69  1  0
 69 70  1  0
 70 71  1  0
 70 72  1  0
 72 73  2  0
 72 74  1  0
 74 75  1  0
 75 76  1  0
 75 77  1  0
 77 78  2  0
 77 79  1  0
 79 80  1  0
 80 81  1  0
 81 82  1  0
 81 83  2  0
 80 84  1  0
 84 85  1  0
 85 86  1  0
 35  5  1  0
 14  9  2  0
 86 11  1  0
  1 87  1  0
  1 88  1  0
  1 89  1  0
  4 90  1  0
  5 91  1  6
  6 92  1  0
  6 93  1  0
  8 94  1  0
  8 95  1  0
 10 96  1  0
 12 97  1  0
 14 98  1  0
 15 99  1  0
 15100  1  0
 17101  1  0
 17102  1  0
 18103  1  1
 19104  1  0
 22105  1  6
 23106  1  0
 23107  1  0
 23108  1  0
 24109  1  0
 27110  1  6
 28111  1  0
 28112  1  0
 28113  1  0
 29114  1  0
 32115  1  1
 33116  1  0
 33117  1  0
 33118  1  0
 34119  1  0
 39120  1  0
 40121  1  6
 41122  1  0
 41123  1  0
 41124  1  0
 44125  1  0
 45126  1  6
 46127  1  0
 46128  1  0
 46129  1  0
 49130  1  0
 50131  1  1
 51132  1  0
 51133  1  0
 51134  1  0
 54135  1  0
 55136  1  1
 56137  1  0
 56138  1  0
 56139  1  0
 59140  1  0
 60141  1  6
 61142  1  0
 61143  1  0
 61144  1  0
 64145  1  0
 65146  1  6
 66147  1  0
 66148  1  0
 66149  1  0
 69150  1  0
 70151  1  6
 71152  1  0
 71153  1  0
 71154  1  0
 74155  1  0
 75156  1  6
 76157  1  0
 76158  1  0
 76159  1  0
 79160  1  0
 80161  1  1
 82162  1  0
 82163  1  0
 84164  1  0
 84165  1  0
 86166  1  0
 86167  1  0
M  END
