
     RDKit          3D

167169  0  0  0  0  0  0  0  0999 V2000
   -9.7228   -6.0099    1.0841 C   0  0  0  0  0  0  0  0  0  0  0  0
   -9.2461   -5.3098   -0.1452 C   0  0  0  0  0  0  0  0  0  0  0  0
   -8.9290   -5.9953   -1.1525 O   0  0  0  0  0  0  0  0  0  0  0  0
   -9.1130   -3.8802   -0.2136 N   0  0  0  0  0  0  0  0  0  0  0  0
   -9.0318   -3.0006    0.9574 C   0  0  1  0  0  0  0  0  0  0  0  0
   -7.5974   -2.4639    1.1096 C   0  0  0  0  0  0  0  0  0  0  0  0
   -6.3835   -3.8342    1.1740 S   0  0  0  0  0  0  0  0  0  0  0  0
   -5.8143   -3.7391   -0.5749 C   0  0  0  0  0  0  0  0  0  0  0  0
   -4.3473   -3.4143   -0.6398 C   0  0  0  0  0  0  0  0  0  0  0  0
   -3.4797   -4.1854   -1.4321 C   0  0  0  0  0  0  0  0  0  0  0  0
   -2.1099   -3.8815   -1.4918 C   0  0  0  0  0  0  0  0  0  0  0  0
   -1.6041   -2.8061   -0.7446 C   0  0  0  0  0  0  0  0  0  0  0  0
   -2.4624   -2.0211    0.0411 C   0  0  0  0  0  0  0  0  0  0  0  0
   -3.8364   -2.3121    0.0636 C   0  0  0  0  0  0  0  0  0  0  0  0
   -1.9244   -0.8585    0.8184 C   0  0  0  0  0  0  0  0  0  0  0  0
   -1.6216    0.5343   -0.3300 S   0  0  0  0  0  0  0  0  0  0  0  0
   -2.3192    1.8182    0.7709 C   0  0  0  0  0  0  0  0  0  0  0  0
   -2.1483    3.2109    0.1398 C   0  0  1  0  0  0  0  0  0  0  0  0
   -2.8556    3.2935   -1.1493 N   0  0  0  0  0  0  0  0  0  0  0  0
   -4.2146    2.8763   -1.3629 C   0  0  0  0  0  0  0  0  0  0  0  0
   -4.4482    1.9547   -2.1928 O   0  0  0  0  0  0  0  0  0  0  0  0
   -5.3665    3.6343   -0.7591 C   0  0  1  0  0  0  0  0  0  0  0  0
   -5.7224    4.8319   -1.6398 C   0  0  0  0  0  0  0  0  0  0  0  0
   -6.5436    2.7721   -0.6127 N   0  0  0  0  0  0  0  0  0  0  0  0
   -7.0975    2.4824    0.6795 C   0  0  0  0  0  0  0  0  0  0  0  0
   -6.3368    2.1040    1.6078 O   0  0  0  0  0  0  0  0  0  0  0  0
   -8.5587    2.7193    0.9777 C   0  0  1  0  0  0  0  0  0  0  0  0
   -8.7582    4.1461    1.5006 C   0  0  0  0  0  0  0  0  0  0  0  0
   -9.3788    2.5228   -0.2204 N   0  0  0  0  0  0  0  0  0  0  0  0
  -10.5011    1.6423   -0.2246 C   0  0  0  0  0  0  0  0  0  0  0  0
  -11.6560    2.1174   -0.0388 O   0  0  0  0  0  0  0  0  0  0  0  0
  -10.3448    0.1830   -0.5602 C   0  0  1  0  0  0  0  0  0  0  0  0
   -9.5065   -0.0004   -1.8291 C   0  0  0  0  0  0  0  0  0  0  0  0
   -9.7260   -0.5419    0.5507 N   0  0  0  0  0  0  0  0  0  0  0  0
  -10.0742   -1.9085    0.8177 C   0  0  0  0  0  0  0  0  0  0  0  0
  -11.2923   -2.2252    0.8720 O   0  0  0  0  0  0  0  0  0  0  0  0
   -2.5780    4.3191    1.0816 C   0  0  0  0  0  0  0  0  0  0  0  0
   -3.3872    4.0520    2.0153 O   0  0  0  0  0  0  0  0  0  0  0  0
   -2.1008    5.6754    0.9576 N   0  0  0  0  0  0  0  0  0  0  0  0
   -0.8253    6.0924    0.3553 C   0  0  2  0  0  0  0  0  0  0  0  0
   -0.9220    6.0598   -1.1765 C   0  0  0  0  0  0  0  0  0  0  0  0
    0.3355    5.2835    0.9043 C   0  0  0  0  0  0  0  0  0  0  0  0
    0.2456    4.7889    2.0612 O   0  0  0  0  0  0  0  0  0  0  0  0
    1.5388    5.1073    0.1447 N   0  0  0  0  0  0  0  0  0  0  0  0
    2.3975    3.9224    0.2849 C   0  0  2  0  0  0  0  0  0  0  0  0
    3.1055    3.8658    1.6456 C   0  0  0  0  0  0  0  0  0  0  0  0
    3.3911    3.8420   -0.8558 C   0  0  0  0  0  0  0  0  0  0  0  0
    3.2938    2.8714   -1.6563 O   0  0  0  0  0  0  0  0  0  0  0  0
    4.4535    4.7960   -1.0683 N   0  0  0  0  0  0  0  0  0  0  0  0
    4.6120    6.0889   -0.3936 C   0  0  2  0  0  0  0  0  0  0  0  0
    4.7562    7.1991   -1.4342 C   0  0  0  0  0  0  0  0  0  0  0  0
    5.8208    6.0438    0.4990 C   0  0  0  0  0  0  0  0  0  0  0  0
    5.7152    6.3287    1.7213 O   0  0  0  0  0  0  0  0  0  0  0  0
    7.0998    5.7090   -0.0382 N   0  0  0  0  0  0  0  0  0  0  0  0
    7.7186    4.4141    0.2557 C   0  0  2  0  0  0  0  0  0  0  0  0
    8.6703    4.5653    1.4504 C   0  0  0  0  0  0  0  0  0  0  0  0
    8.4555    3.9048   -0.9638 C   0  0  0  0  0  0  0  0  0  0  0  0
    8.9799    4.7317   -1.7596 O   0  0  0  0  0  0  0  0  0  0  0  0
    8.5593    2.5051   -1.2636 N   0  0  0  0  0  0  0  0  0  0  0  0
    8.6722    1.4581   -0.2415 C   0  0  2  0  0  0  0  0  0  0  0  0
   10.1429    1.3387    0.1822 C   0  0  0  0  0  0  0  0  0  0  0  0
    8.1840    0.1289   -0.7843 C   0  0  0  0  0  0  0  0  0  0  0  0
    7.6096    0.0557   -1.9051 O   0  0  0  0  0  0  0  0  0  0  0  0
    8.3587   -1.0635   -0.0099 N   0  0  0  0  0  0  0  0  0  0  0  0
    9.3250   -2.0863   -0.4380 C   0  0  2  0  0  0  0  0  0  0  0  0
    8.8331   -2.8486   -1.6791 C   0  0  0  0  0  0  0  0  0  0  0  0
    9.6803   -3.0220    0.6982 C   0  0  0  0  0  0  0  0  0  0  0  0
   10.8181   -2.9054    1.2311 O   0  0  0  0  0  0  0  0  0  0  0  0
    8.7994   -4.0444    1.1888 N   0  0  0  0  0  0  0  0  0  0  0  0
    7.3289   -4.0259    1.1022 C   0  0  2  0  0  0  0  0  0  0  0  0
    6.7631   -3.9634    2.5289 C   0  0  0  0  0  0  0  0  0  0  0  0
    6.8423   -5.2563    0.3646 C   0  0  0  0  0  0  0  0  0  0  0  0
    7.5970   -5.8060   -0.4815 O   0  0  0  0  0  0  0  0  0  0  0  0
    5.5694   -5.8561    0.6490 N   0  0  0  0  0  0  0  0  0  0  0  0
    4.2715   -5.3762    0.1443 C   0  0  2  0  0  0  0  0  0  0  0  0
    4.3060   -3.9104   -0.3176 C   0  0  0  0  0  0  0  0  0  0  0  0
    3.2258   -5.5416    1.2226 C   0  0  0  0  0  0  0  0  0  0  0  0
    3.5714   -5.3595    2.4225 O   0  0  0  0  0  0  0  0  0  0  0  0
    1.8581   -5.8978    0.9478 N   0  0  0  0  0  0  0  0  0  0  0  0
    1.2795   -6.1104   -0.3866 C   0  0  1  0  0  0  0  0  0  0  0  0
    1.7930   -7.4059   -0.9711 C   0  0  0  0  0  0  0  0  0  0  0  0
    1.7948   -8.6072   -0.2046 N   0  0  0  0  0  0  0  0  0  0  0  0
    2.2393   -7.4174   -2.1504 O   0  0  0  0  0  0  0  0  0  0  0  0
   -0.2539   -6.1539   -0.2696 C   0  0  0  0  0  0  0  0  0  0  0  0
   -1.0856   -6.4187   -1.8803 S   0  0  0  0  0  0  0  0  0  0  0  0
   -1.1982   -4.6677   -2.3904 C   0  0  0  0  0  0  0  0  0  0  0  0
   -8.8695   -6.1852    1.7836 H   0  0  0  0  0  0  0  0  0  0  0  0
  -10.1545   -7.0030    0.8032 H   0  0  0  0  0  0  0  0  0  0  0  0
  -10.5251   -5.4329    1.5992 H   0  0  0  0  0  0  0  0  0  0  0  0
   -8.8858   -3.4672   -1.1424 H   0  0  0  0  0  0  0  0  0  0  0  0
   -9.2713   -3.5491    1.8904 H   0  0  0  0  0  0  0  0  0  0  0  0
   -7.5239   -1.9099    2.0744 H   0  0  0  0  0  0  0  0  0  0  0  0
   -7.3443   -1.7419    0.3062 H   0  0  0  0  0  0  0  0  0  0  0  0
   -6.0225   -4.7227   -1.0458 H   0  0  0  0  0  0  0  0  0  0  0  0
   -6.3726   -2.9900   -1.1703 H   0  0  0  0  0  0  0  0  0  0  0  0
   -3.8733   -5.0024   -2.0239 H   0  0  0  0  0  0  0  0  0  0  0  0
   -0.5456   -2.5703   -0.7828 H   0  0  0  0  0  0  0  0  0  0  0  0
   -4.5034   -1.6752    0.6332 H   0  0  0  0  0  0  0  0  0  0  0  0
   -2.6401   -0.5838    1.6295 H   0  0  0  0  0  0  0  0  0  0  0  0
   -0.9646   -1.1329    1.3136 H   0  0  0  0  0  0  0  0  0  0  0  0
   -1.7743    1.7811    1.7412 H   0  0  0  0  0  0  0  0  0  0  0  0
   -3.3962    1.6053    0.9555 H   0  0  0  0  0  0  0  0  0  0  0  0
   -1.0658    3.3137   -0.0540 H   0  0  0  0  0  0  0  0  0  0  0  0
   -2.2539    3.3218   -2.0035 H   0  0  0  0  0  0  0  0  0  0  0  0
   -5.0802    4.0261    0.2321 H   0  0  0  0  0  0  0  0  0  0  0  0
   -5.9537    4.5088   -2.6765 H   0  0  0  0  0  0  0  0  0  0  0  0
   -4.8723    5.5463   -1.6762 H   0  0  0  0  0  0  0  0  0  0  0  0
   -6.6107    5.3666   -1.2300 H   0  0  0  0  0  0  0  0  0  0  0  0
   -7.0970    2.5319   -1.4685 H   0  0  0  0  0  0  0  0  0  0  0  0
   -8.8801    2.0174    1.7780 H   0  0  0  0  0  0  0  0  0  0  0  0
   -8.3452    4.8942    0.7888 H   0  0  0  0  0  0  0  0  0  0  0  0
   -8.2559    4.2672    2.4844 H   0  0  0  0  0  0  0  0  0  0  0  0
   -9.8450    4.3456    1.6373 H   0  0  0  0  0  0  0  0  0  0  0  0
   -9.3157    3.2270   -0.9915 H   0  0  0  0  0  0  0  0  0  0  0  0
  -11.3526   -0.2373   -0.7597 H   0  0  0  0  0  0  0  0  0  0  0  0
   -9.9687    0.5541   -2.6748 H   0  0  0  0  0  0  0  0  0  0  0  0
   -8.4677    0.3682   -1.6691 H   0  0  0  0  0  0  0  0  0  0  0  0
   -9.4629   -1.0793   -2.0944 H   0  0  0  0  0  0  0  0  0  0  0  0
   -8.8529   -0.1495    0.9633 H   0  0  0  0  0  0  0  0  0  0  0  0
   -2.6311    6.4039    1.4789 H   0  0  0  0  0  0  0  0  0  0  0  0
   -0.6449    7.1484    0.6460 H   0  0  0  0  0  0  0  0  0  0  0  0
   -0.1797    6.7517   -1.6213 H   0  0  0  0  0  0  0  0  0  0  0  0
   -0.7340    5.0442   -1.5740 H   0  0  0  0  0  0  0  0  0  0  0  0
   -1.9293    6.3927   -1.5006 H   0  0  0  0  0  0  0  0  0  0  0  0
    1.6886    5.7337   -0.6790 H   0  0  0  0  0  0  0  0  0  0  0  0
    1.7441    3.0242    0.2242 H   0  0  0  0  0  0  0  0  0  0  0  0
    3.5681    4.8372    1.9132 H   0  0  0  0  0  0  0  0  0  0  0  0
    3.8947    3.0782    1.6332 H   0  0  0  0  0  0  0  0  0  0  0  0
    2.3868    3.5947    2.4461 H   0  0  0  0  0  0  0  0  0  0  0  0
    5.1823    4.5333   -1.7746 H   0  0  0  0  0  0  0  0  0  0  0  0
    3.7271    6.3410    0.2138 H   0  0  0  0  0  0  0  0  0  0  0  0
    4.8628    8.1830   -0.9348 H   0  0  0  0  0  0  0  0  0  0  0  0
    5.6390    7.0217   -2.0778 H   0  0  0  0  0  0  0  0  0  0  0  0
    3.8479    7.2301   -2.0724 H   0  0  0  0  0  0  0  0  0  0  0  0
    7.6848    6.4921   -0.3990 H   0  0  0  0  0  0  0  0  0  0  0  0
    6.9184    3.6835    0.5194 H   0  0  0  0  0  0  0  0  0  0  0  0
    9.0168    3.5721    1.8058 H   0  0  0  0  0  0  0  0  0  0  0  0
    9.5580    5.1818    1.1713 H   0  0  0  0  0  0  0  0  0  0  0  0
    8.1466    5.0659    2.2975 H   0  0  0  0  0  0  0  0  0  0  0  0
    8.8952    2.2676   -2.2248 H   0  0  0  0  0  0  0  0  0  0  0  0
    8.0503    1.7060    0.6512 H   0  0  0  0  0  0  0  0  0  0  0  0
   10.7619    0.9934   -0.6732 H   0  0  0  0  0  0  0  0  0  0  0  0
   10.2431    0.6184    1.0195 H   0  0  0  0  0  0  0  0  0  0  0  0
   10.5255    2.3241    0.5205 H   0  0  0  0  0  0  0  0  0  0  0  0
    8.1002   -1.0127    1.0063 H   0  0  0  0  0  0  0  0  0  0  0  0
   10.2589   -1.5636   -0.7361 H   0  0  0  0  0  0  0  0  0  0  0  0
    7.7929   -3.2057   -1.5608 H   0  0  0  0  0  0  0  0  0  0  0  0
    9.4974   -3.7202   -1.8769 H   0  0  0  0  0  0  0  0  0  0  0  0
    8.8732   -2.1878   -2.5668 H   0  0  0  0  0  0  0  0  0  0  0  0
    9.2268   -4.8029    1.7687 H   0  0  0  0  0  0  0  0  0  0  0  0
    6.9725   -3.1261    0.5648 H   0  0  0  0  0  0  0  0  0  0  0  0
    6.9955   -4.8923    3.0917 H   0  0  0  0  0  0  0  0  0  0  0  0
    5.6634   -3.8140    2.5156 H   0  0  0  0  0  0  0  0  0  0  0  0
    7.2094   -3.1039    3.0720 H   0  0  0  0  0  0  0  0  0  0  0  0
    5.6014   -6.8522    0.9593 H   0  0  0  0  0  0  0  0  0  0  0  0
    4.0181   -5.9937   -0.7371 H   0  0  0  0  0  0  0  0  0  0  0  0
    4.5560   -3.2383    0.5245 H   0  0  0  0  0  0  0  0  0  0  0  0
    5.0519   -3.7705   -1.1290 H   0  0  0  0  0  0  0  0  0  0  0  0
    3.3178   -3.6054   -0.7162 H   0  0  0  0  0  0  0  0  0  0  0  0
    1.2348   -5.9750    1.7854 H   0  0  0  0  0  0  0  0  0  0  0  0
    1.5573   -5.2644   -1.0443 H   0  0  0  0  0  0  0  0  0  0  0  0
    2.1597   -9.4918   -0.6209 H   0  0  0  0  0  0  0  0  0  0  0  0
    1.4168   -8.6214    0.7733 H   0  0  0  0  0  0  0  0  0  0  0  0
   -0.5600   -6.9886    0.3957 H   0  0  0  0  0  0  0  0  0  0  0  0
   -0.6152   -5.2232    0.2117 H   0  0  0  0  0  0  0  0  0  0  0  0
   -0.1823   -4.2319   -2.4354 H   0  0  0  0  0  0  0  0  0  0  0  0
   -1.6096   -4.6397   -3.4185 H   0  0  0  0  0  0  0  0  0  0  0  0
  1  2  1  0
  2  3  2  0
  2  4  1  0
  4  5  1  0
  5  6  1  0
  6  7  1  0
  7  8  1  0
  8  9  1  0
  9 10  1  0
 10 11  2  0
 11 12  1  0
 12 13  2  0
 13 14  1  0
 13 15  1  0
 15 16  1  0
 16 17  1  0
 17 18  1  0
 18 19  1  0
 19 20  1  0
 20 21  2  0
 20 22  1  0
 22 23  1  0
 22 24  1  0
 24 25  1  0
 25 26  2  0
 25 27  1  0
 27 28  1  0
 27 29  1  0
 29 30  1  0
 30 31  2  0
 30 32  1  0
 32 33  1  0
 32 34  1  0
 34 35  1  0
 35 36  2  0
 18 37  1  0
 37 38  2  0
 37 39  1  0
 39 40  1  0
 40 41  1  0
 40 42  1  0
 42 43  2  0
 42 44  1  0
 44 45  1  0
 45 46  1  0
 45 47  1  0
 47 48  2  0
 47 49  1  0
 49 50  1  0
 50 51  1  0
 50 52  1  0
 52 53  2  0
 52 54  1  0
 54 55  1  0
 55 56  1  0
 55 57  1  0
 57 58  2  0
 57 59  1  0
 59 60  1  0
 60 61  1  0
 60 62  1  0
 62 63  2  0
 62 64  1  0
 64 65  1  0
 65 66  1  0
 65 67  1  0
 67 68  2  0
 67 69  1  0
 69 70  1  0
 70 71  1  0
 70 72  1  0
 72 73  2  0
 72 74  1  0
 74 75  1  0
 75 76  1  0
 75 77  1  0
 77 78  2  0
 77 79  1  0
 79 80  1  0
 80 81  1  0
 81 82  1  0
 81 83  2  0
 80 84  1  0
 84 85  1  0
 85 86  1  0
 35  5  1  0
 14  9  2  0
 86 11  1  0
  1 87  1  0
  1 88  1  0
  1 89  1  0
  4 90  1  0
  5 91  1  1
  6 92  1  0
  6 93  1  0
  8 94  1  0
  8 95  1  0
 10 96  1  0
 12 97  1  0
 14 98  1  0
 15 99  1  0
 15100  1  0
 17101  1  0
 17102  1  0
 18103  1  6
 19104  1  0
 22105  1  1
 23106  1  0
 23107  1  0
 23108  1  0
 24109  1  0
 27110  1  1
 28111  1  0
 28112  1  0
 28113  1  0
 29114  1  0
 32115  1  6
 33116  1  0
 33117  1  0
 33118  1  0
 34119  1  0
 39120  1  0
 40121  1  6
 41122  1  0
 41123  1  0
 41124  1  0
 44125  1  0
 45126  1  1
 46127  1  0
 46128  1  0
 46129  1  0
 49130  1  0
 50131  1  1
 51132  1  0
 51133  1  0
 51134  1  0
 54135  1  0
 55136  1  1
 56137  1  0
 56138  1  0
 56139  1  0
 59140  1  0
 60141  1  1
 61142  1  0
 61143  1  0
 61144  1  0
 64145  1  0
 65146  1  6
 66147  1  0
 66148  1  0
 66149  1  0
 69150  1  0
 70151  1  6
 71152  1  0
 71153  1  0
 71154  1  0
 74155  1  0
 75156  1  6
 76157  1  0
 76158  1  0
 76159  1  0
 79160  1  0
 80161  1  6
 82162  1  0
 82163  1  0
 84164  1  0
 84165  1  0
 86166  1  0
 86167  1  0
M  END
