
     RDKit          3D

127129  0  0  0  0  0  0  0  0999 V2000
   -9.2524    1.4916   -0.1033 C   0  0  0  0  0  0  0  0  0  0  0  0
   -8.8750    1.3979   -1.5483 C   0  0  0  0  0  0  0  0  0  0  0  0
   -9.7850    1.4838   -2.4192 O   0  0  0  0  0  0  0  0  0  0  0  0
   -7.5118    1.2489   -1.9792 N   0  0  0  0  0  0  0  0  0  0  0  0
   -6.3469    1.2391   -1.0878 C   0  0  2  0  0  0  0  0  0  0  0  0
   -5.4777    2.4859   -1.3608 C   0  0  0  0  0  0  0  0  0  0  0  0
   -6.2530    4.0478   -0.7861 S   0  0  0  0  0  0  0  0  0  0  0  0
   -6.0370    3.8351    1.0303 C   0  0  0  0  0  0  0  0  0  0  0  0
   -4.6282    3.4733    1.4183 C   0  0  0  0  0  0  0  0  0  0  0  0
   -4.3570    2.2020    1.9384 C   0  0  0  0  0  0  0  0  0  0  0  0
   -3.0428    1.8225    2.2666 C   0  0  0  0  0  0  0  0  0  0  0  0
   -2.0023    2.7656    2.1301 C   0  0  0  0  0  0  0  0  0  0  0  0
   -2.2734    4.0611    1.6507 C   0  0  0  0  0  0  0  0  0  0  0  0
   -3.5825    4.3950    1.2672 C   0  0  0  0  0  0  0  0  0  0  0  0
   -1.1942    5.1041    1.5949 C   0  0  0  0  0  0  0  0  0  0  0  0
   -0.7263    5.4472   -0.1358 S   0  0  0  0  0  0  0  0  0  0  0  0
    1.0264    4.9100   -0.0649 C   0  0  0  0  0  0  0  0  0  0  0  0
    1.9585    5.9775   -0.6720 C   0  0  1  0  0  0  0  0  0  0  0  0
    1.8592    7.2688    0.1034 C   0  0  0  0  0  0  0  0  0  0  0  0
    1.2743    8.4312   -0.4872 N   0  0  0  0  0  0  0  0  0  0  0  0
    2.2812    7.3233    1.2901 O   0  0  0  0  0  0  0  0  0  0  0  0
    3.3392    5.4871   -0.6547 N   0  0  0  0  0  0  0  0  0  0  0  0
    3.7475    4.3853   -1.4778 C   0  0  0  0  0  0  0  0  0  0  0  0
    3.1919    4.2103   -2.5944 O   0  0  0  0  0  0  0  0  0  0  0  0
    4.8489    3.4357   -1.0474 C   0  0  1  0  0  0  0  0  0  0  0  0
    5.0072    3.3693    0.4753 C   0  0  0  0  0  0  0  0  0  0  0  0
    4.5425    2.0916   -1.5380 N   0  0  0  0  0  0  0  0  0  0  0  0
    5.3963    1.4040   -2.4597 C   0  0  0  0  0  0  0  0  0  0  0  0
    5.0830    1.3697   -3.6789 O   0  0  0  0  0  0  0  0  0  0  0  0
    6.6596    0.7180   -1.9960 C   0  0  1  0  0  0  0  0  0  0  0  0
    7.8376    1.6967   -2.0007 C   0  0  0  0  0  0  0  0  0  0  0  0
    6.4919    0.1274   -0.6631 N   0  0  0  0  0  0  0  0  0  0  0  0
    5.4600   -0.8242   -0.3719 C   0  0  0  0  0  0  0  0  0  0  0  0
    4.3831   -0.4267    0.1472 O   0  0  0  0  0  0  0  0  0  0  0  0
    5.6871   -2.3020   -0.5425 C   0  0  1  0  0  0  0  0  0  0  0  0
    6.0527   -2.6582   -1.9806 C   0  0  0  0  0  0  0  0  0  0  0  0
    6.7449   -2.7582    0.3677 N   0  0  0  0  0  0  0  0  0  0  0  0
    6.5949   -3.8167    1.3268 C   0  0  0  0  0  0  0  0  0  0  0  0
    7.4604   -3.9304    2.2469 O   0  0  0  0  0  0  0  0  0  0  0  0
    5.4003   -4.7416    1.3188 C   0  0  1  0  0  0  0  0  0  0  0  0
    5.7108   -6.0873    1.9859 C   0  0  0  0  0  0  0  0  0  0  0  0
    4.2876   -4.0870    2.0172 N   0  0  0  0  0  0  0  0  0  0  0  0
    2.8872   -4.3426    1.7947 C   0  0  0  0  0  0  0  0  0  0  0  0
    2.0752   -4.0489    2.7159 O   0  0  0  0  0  0  0  0  0  0  0  0
    2.3327   -4.9368    0.5153 C   0  0  1  0  0  0  0  0  0  0  0  0
    1.7648   -6.3291    0.8116 C   0  0  0  0  0  0  0  0  0  0  0  0
    1.2875   -4.0575   -0.0274 N   0  0  0  0  0  0  0  0  0  0  0  0
    0.5208   -4.4128   -1.1898 C   0  0  0  0  0  0  0  0  0  0  0  0
    1.0322   -5.1471   -2.0766 O   0  0  0  0  0  0  0  0  0  0  0  0
   -0.9143   -3.9602   -1.2786 C   0  0  1  0  0  0  0  0  0  0  0  0
   -1.6429   -4.5067   -2.5101 C   0  0  0  0  0  0  0  0  0  0  0  0
   -1.6070   -4.3910   -0.0600 N   0  0  0  0  0  0  0  0  0  0  0  0
   -1.8531   -3.5119    1.0466 C   0  0  0  0  0  0  0  0  0  0  0  0
   -1.4616   -3.8535    2.1900 O   0  0  0  0  0  0  0  0  0  0  0  0
   -2.6839   -2.2607    0.8967 C   0  0  1  0  0  0  0  0  0  0  0  0
   -1.8241   -0.9819    0.7799 C   0  0  0  0  0  0  0  0  0  0  0  0
   -1.2561   -0.3561    2.4111 S   0  0  0  0  0  0  0  0  0  0  0  0
   -2.8272    0.4684    2.8958 C   0  0  0  0  0  0  0  0  0  0  0  0
   -3.5902   -2.3743   -0.2511 N   0  0  0  0  0  0  0  0  0  0  0  0
   -4.8485   -3.0398   -0.1129 C   0  0  0  0  0  0  0  0  0  0  0  0
   -4.8674   -4.2344    0.2726 O   0  0  0  0  0  0  0  0  0  0  0  0
   -6.1507   -2.2716   -0.1600 C   0  0  1  0  0  0  0  0  0  0  0  0
   -6.4062   -1.5834    1.1810 C   0  0  0  0  0  0  0  0  0  0  0  0
   -6.2407   -1.3126   -1.2749 N   0  0  0  0  0  0  0  0  0  0  0  0
   -5.5660   -0.0429   -1.2882 C   0  0  0  0  0  0  0  0  0  0  0  0
   -4.3201   -0.0089   -1.4084 O   0  0  0  0  0  0  0  0  0  0  0  0
   -8.7869    2.3902    0.3488 H   0  0  0  0  0  0  0  0  0  0  0  0
  -10.3536    1.5853    0.0124 H   0  0  0  0  0  0  0  0  0  0  0  0
   -8.9218    0.5821    0.4381 H   0  0  0  0  0  0  0  0  0  0  0  0
   -7.3345    1.1909   -3.0067 H   0  0  0  0  0  0  0  0  0  0  0  0
   -6.6585    1.2445   -0.0235 H   0  0  0  0  0  0  0  0  0  0  0  0
   -4.4721    2.3871   -0.9029 H   0  0  0  0  0  0  0  0  0  0  0  0
   -5.3005    2.5699   -2.4535 H   0  0  0  0  0  0  0  0  0  0  0  0
   -6.7530    3.0662    1.3881 H   0  0  0  0  0  0  0  0  0  0  0  0
   -6.3140    4.7894    1.5227 H   0  0  0  0  0  0  0  0  0  0  0  0
   -5.1706    1.4996    2.0666 H   0  0  0  0  0  0  0  0  0  0  0  0
   -0.9921    2.4997    2.4247 H   0  0  0  0  0  0  0  0  0  0  0  0
   -3.7992    5.3887    0.8845 H   0  0  0  0  0  0  0  0  0  0  0  0
   -1.6046    6.0512    2.0112 H   0  0  0  0  0  0  0  0  0  0  0  0
   -0.3416    4.8349    2.2574 H   0  0  0  0  0  0  0  0  0  0  0  0
    1.0974    3.9791   -0.6647 H   0  0  0  0  0  0  0  0  0  0  0  0
    1.3632    4.6683    0.9641 H   0  0  0  0  0  0  0  0  0  0  0  0
    1.6524    6.1620   -1.7254 H   0  0  0  0  0  0  0  0  0  0  0  0
    0.8379    8.3814   -1.4387 H   0  0  0  0  0  0  0  0  0  0  0  0
    1.2187    9.3264    0.0529 H   0  0  0  0  0  0  0  0  0  0  0  0
    4.0198    5.8755    0.0383 H   0  0  0  0  0  0  0  0  0  0  0  0
    5.8000    3.7979   -1.4847 H   0  0  0  0  0  0  0  0  0  0  0  0
    5.4578    4.3054    0.8633 H   0  0  0  0  0  0  0  0  0  0  0  0
    5.6895    2.5413    0.7550 H   0  0  0  0  0  0  0  0  0  0  0  0
    4.0278    3.1999    0.9693 H   0  0  0  0  0  0  0  0  0  0  0  0
    3.5840    1.7095   -1.3849 H   0  0  0  0  0  0  0  0  0  0  0  0
    6.8983   -0.0859   -2.7181 H   0  0  0  0  0  0  0  0  0  0  0  0
    7.7062    2.4772   -1.2245 H   0  0  0  0  0  0  0  0  0  0  0  0
    8.7784    1.1446   -1.7812 H   0  0  0  0  0  0  0  0  0  0  0  0
    7.9405    2.1744   -2.9973 H   0  0  0  0  0  0  0  0  0  0  0  0
    7.1189    0.4144    0.1226 H   0  0  0  0  0  0  0  0  0  0  0  0
    4.7239   -2.8118   -0.3165 H   0  0  0  0  0  0  0  0  0  0  0  0
    6.0343   -3.7632   -2.1060 H   0  0  0  0  0  0  0  0  0  0  0  0
    5.3191   -2.2162   -2.6849 H   0  0  0  0  0  0  0  0  0  0  0  0
    7.0720   -2.3074   -2.2323 H   0  0  0  0  0  0  0  0  0  0  0  0
    7.6688   -2.2703    0.3311 H   0  0  0  0  0  0  0  0  0  0  0  0
    5.1592   -4.9597    0.2618 H   0  0  0  0  0  0  0  0  0  0  0  0
    6.6047   -6.5531    1.5220 H   0  0  0  0  0  0  0  0  0  0  0  0
    4.8531   -6.7782    1.8579 H   0  0  0  0  0  0  0  0  0  0  0  0
    5.8886   -5.9532    3.0757 H   0  0  0  0  0  0  0  0  0  0  0  0
    4.5260   -3.5710    2.8971 H   0  0  0  0  0  0  0  0  0  0  0  0
    3.1209   -5.0337   -0.2601 H   0  0  0  0  0  0  0  0  0  0  0  0
    1.4824   -6.8421   -0.1268 H   0  0  0  0  0  0  0  0  0  0  0  0
    0.8561   -6.2472    1.4493 H   0  0  0  0  0  0  0  0  0  0  0  0
    2.5168   -6.9567    1.3275 H   0  0  0  0  0  0  0  0  0  0  0  0
    0.9224   -3.2728    0.5617 H   0  0  0  0  0  0  0  0  0  0  0  0
   -0.9102   -2.8569   -1.3480 H   0  0  0  0  0  0  0  0  0  0  0  0
   -2.6988   -4.1656   -2.5080 H   0  0  0  0  0  0  0  0  0  0  0  0
   -1.1652   -4.1183   -3.4318 H   0  0  0  0  0  0  0  0  0  0  0  0
   -1.6399   -5.6126   -2.5247 H   0  0  0  0  0  0  0  0  0  0  0  0
   -1.6398   -5.4204    0.1263 H   0  0  0  0  0  0  0  0  0  0  0  0
   -3.3063   -2.1879    1.8128 H   0  0  0  0  0  0  0  0  0  0  0  0
   -0.9233   -1.1680    0.1576 H   0  0  0  0  0  0  0  0  0  0  0  0
   -2.3973   -0.1751    0.2739 H   0  0  0  0  0  0  0  0  0  0  0  0
   -3.6756   -0.1904    2.5959 H   0  0  0  0  0  0  0  0  0  0  0  0
   -2.8983    0.5375    4.0061 H   0  0  0  0  0  0  0  0  0  0  0  0
   -3.2333   -2.1877   -1.2177 H   0  0  0  0  0  0  0  0  0  0  0  0
   -6.9632   -3.0154   -0.2973 H   0  0  0  0  0  0  0  0  0  0  0  0
   -7.4053   -1.1021    1.1754 H   0  0  0  0  0  0  0  0  0  0  0  0
   -5.6329   -0.8085    1.3772 H   0  0  0  0  0  0  0  0  0  0  0  0
   -6.3813   -2.3258    2.0102 H   0  0  0  0  0  0  0  0  0  0  0  0
   -7.0874   -1.3952   -1.8783 H   0  0  0  0  0  0  0  0  0  0  0  0
  1  2  1  0
  2  3  2  0
  2  4  1  0
  4  5  1  0
  5  6  1  0
  6  7  1  0
  7  8  1  0
  8  9  1  0
  9 10  1  0
 10 11  2  0
 11 12  1  0
 12 13  2  0
 13 14  1  0
 13 15  1  0
 15 16  1  0
 16 17  1  0
 17 18  1  0
 18 19  1  0
 19 20  1  0
 19 21  2  0
 18 22  1  0
 22 23  1  0
 23 24  2  0
 23 25  1  0
 25 26  1  0
 25 27  1  0
 27 28  1  0
 28 29  2  0
 28 30  1  0
 30 31  1  0
 30 32  1  0
 32 33  1  0
 33 34  2  0
 33 35  1  0
 35 36  1  0
 35 37  1  0
 37 38  1  0
 38 39  2  0
 38 40  1  0
 40 41  1  0
 40 42  1  0
 42 43  1  0
 43 44  2  0
 43 45  1  0
 45 46  1  0
 45 47  1  0
 47 48  1  0
 48 49  2  0
 48 50  1  0
 50 51  1  0
 50 52  1  0
 52 53  1  0
 53 54  2  0
 53 55  1  0
 55 56  1  0
 56 57  1  0
 57 58  1  0
 55 59  1  0
 59 60  1  0
 60 61  2  0
 60 62  1  0
 62 63  1  0
 62 64  1  0
 64 65  1  0
 65 66  2  0
 65  5  1  0
 14  9  2  0
 58 11  1  0
  1 67  1  0
  1 68  1  0
  1 69  1  0
  4 70  1  0
  5 71  1  1
  6 72  1  0
  6 73  1  0
  8 74  1  0
  8 75  1  0
 10 76  1  0
 12 77  1  0
 14 78  1  0
 15 79  1  0
 15 80  1  0
 17 81  1  0
 17 82  1  0
 18 83  1  6
 20 84  1  0
 20 85  1  0
 22 86  1  0
 25 87  1  6
 26 88  1  0
 26 89  1  0
 26 90  1  0
 27 91  1  0
 30 92  1  6
 31 93  1  0
 31 94  1  0
 31 95  1  0
 32 96  1  0
 35 97  1  1
 36 98  1  0
 36 99  1  0
 36100  1  0
 37101  1  0
 40102  1  6
 41103  1  0
 41104  1  0
 41105  1  0
 42106  1  0
 45107  1  6
 46108  1  0
 46109  1  0
 46110  1  0
 47111  1  0
 50112  1  6
 51113  1  0
 51114  1  0
 51115  1  0
 52116  1  0
 55117  1  1
 56118  1  0
 56119  1  0
 58120  1  0
 58121  1  0
 59122  1  0
 62123  1  6
 63124  1  0
 63125  1  0
 63126  1  0
 64127  1  0
M  END
