
     RDKit          3D

157159  0  0  0  0  0  0  0  0999 V2000
  -10.6246    6.2672   -0.9009 C   0  0  0  0  0  0  0  0  0  0  0  0
  -10.1610    4.8578   -1.0758 C   0  0  0  0  0  0  0  0  0  0  0  0
  -10.5197    4.2051   -2.0941 O   0  0  0  0  0  0  0  0  0  0  0  0
   -9.3156    4.2581   -0.0871 N   0  0  0  0  0  0  0  0  0  0  0  0
   -8.7391    2.9182   -0.2456 C   0  0  1  0  0  0  0  0  0  0  0  0
   -7.4503    2.9827   -1.0768 C   0  0  0  0  0  0  0  0  0  0  0  0
   -6.2368    4.1796   -0.3958 S   0  0  0  0  0  0  0  0  0  0  0  0
   -4.8662    3.7084   -1.5178 C   0  0  0  0  0  0  0  0  0  0  0  0
   -3.7110    3.1478   -0.7357 C   0  0  0  0  0  0  0  0  0  0  0  0
   -2.4196    3.6588   -0.9274 C   0  0  0  0  0  0  0  0  0  0  0  0
   -1.3311    3.1291   -0.2164 C   0  0  0  0  0  0  0  0  0  0  0  0
   -1.5473    2.1143    0.7222 C   0  0  0  0  0  0  0  0  0  0  0  0
   -2.8353    1.5909    0.9213 C   0  0  0  0  0  0  0  0  0  0  0  0
   -3.9104    2.1084    0.1871 C   0  0  0  0  0  0  0  0  0  0  0  0
   -3.0651    0.4913    1.9210 C   0  0  0  0  0  0  0  0  0  0  0  0
   -3.8456   -0.9767    1.1546 S   0  0  0  0  0  0  0  0  0  0  0  0
   -2.4226   -1.4137    0.0991 C   0  0  0  0  0  0  0  0  0  0  0  0
   -2.7368   -2.6580   -0.7431 C   0  0  1  0  0  0  0  0  0  0  0  0
   -3.8682   -2.3731   -1.6380 N   0  0  0  0  0  0  0  0  0  0  0  0
   -5.0461   -3.1810   -1.8338 C   0  0  0  0  0  0  0  0  0  0  0  0
   -5.9280   -2.7493   -2.6281 O   0  0  0  0  0  0  0  0  0  0  0  0
   -5.2542   -4.5576   -1.2374 C   0  0  1  0  0  0  0  0  0  0  0  0
   -4.2362   -5.5655   -1.7936 C   0  0  0  0  0  0  0  0  0  0  0  0
   -5.2483   -4.5344    0.2294 N   0  0  0  0  0  0  0  0  0  0  0  0
   -6.3537   -4.0978    1.0464 C   0  0  0  0  0  0  0  0  0  0  0  0
   -6.2812   -4.2640    2.2980 O   0  0  0  0  0  0  0  0  0  0  0  0
   -7.6324   -3.5316    0.4593 C   0  0  1  0  0  0  0  0  0  0  0  0
   -8.6457   -4.6533    0.2179 C   0  0  0  0  0  0  0  0  0  0  0  0
   -8.2124   -2.5497    1.3743 N   0  0  0  0  0  0  0  0  0  0  0  0
   -7.8808   -1.1609    1.2781 C   0  0  0  0  0  0  0  0  0  0  0  0
   -6.8381   -0.7413    1.8399 O   0  0  0  0  0  0  0  0  0  0  0  0
   -8.7592   -0.1833    0.5352 C   0  0  1  0  0  0  0  0  0  0  0  0
  -10.0908   -0.8002    0.0932 C   0  0  0  0  0  0  0  0  0  0  0  0
   -9.0160    0.9726    1.3982 N   0  0  0  0  0  0  0  0  0  0  0  0
   -8.5127    2.2836    1.1069 C   0  0  0  0  0  0  0  0  0  0  0  0
   -7.9250    2.9279    2.0161 O   0  0  0  0  0  0  0  0  0  0  0  0
   -1.5087   -3.0264   -1.5488 C   0  0  0  0  0  0  0  0  0  0  0  0
   -1.5499   -2.9853   -2.8091 O   0  0  0  0  0  0  0  0  0  0  0  0
   -0.2572   -3.3156   -0.9111 N   0  0  0  0  0  0  0  0  0  0  0  0
   -0.1203   -4.2177    0.2379 C   0  0  2  0  0  0  0  0  0  0  0  0
    0.7491   -3.5682    1.3176 C   0  0  0  0  0  0  0  0  0  0  0  0
    0.4788   -5.5318   -0.1927 C   0  0  0  0  0  0  0  0  0  0  0  0
   -0.0399   -6.6051    0.2163 O   0  0  0  0  0  0  0  0  0  0  0  0
    1.6167   -5.5762   -1.0727 N   0  0  0  0  0  0  0  0  0  0  0  0
    2.9286   -6.1511   -0.7411 C   0  0  2  0  0  0  0  0  0  0  0  0
    2.8882   -7.0626    0.4939 C   0  0  0  0  0  0  0  0  0  0  0  0
    3.9453   -5.0480   -0.5483 C   0  0  0  0  0  0  0  0  0  0  0  0
    3.5967   -3.8384   -0.6220 O   0  0  0  0  0  0  0  0  0  0  0  0
    5.3276   -5.3593   -0.3693 N   0  0  0  0  0  0  0  0  0  0  0  0
    5.9689   -5.3418    0.9511 C   0  0  2  0  0  0  0  0  0  0  0  0
    5.7176   -4.0215    1.6965 C   0  0  0  0  0  0  0  0  0  0  0  0
    7.4390   -5.6681    0.8221 C   0  0  0  0  0  0  0  0  0  0  0  0
    7.7826   -6.8806    0.7326 O   0  0  0  0  0  0  0  0  0  0  0  0
    8.4585   -4.6582    0.8162 N   0  0  0  0  0  0  0  0  0  0  0  0
    8.4987   -3.5925   -0.1881 C   0  0  2  0  0  0  0  0  0  0  0  0
    9.3091   -4.0492   -1.4022 C   0  0  0  0  0  0  0  0  0  0  0  0
    9.1123   -2.3521    0.4157 C   0  0  0  0  0  0  0  0  0  0  0  0
   10.2827   -2.4106    0.8818 O   0  0  0  0  0  0  0  0  0  0  0  0
    8.3443   -1.1393    0.5067 N   0  0  0  0  0  0  0  0  0  0  0  0
    8.8468    0.2429    0.4059 C   0  0  2  0  0  0  0  0  0  0  0  0
   10.3778    0.3615    0.4325 C   0  0  0  0  0  0  0  0  0  0  0  0
    8.2585    1.0719    1.5260 C   0  0  0  0  0  0  0  0  0  0  0  0
    8.3658    0.6521    2.7103 O   0  0  0  0  0  0  0  0  0  0  0  0
    7.5531    2.3006    1.2873 N   0  0  0  0  0  0  0  0  0  0  0  0
    7.9161    3.2716    0.2476 C   0  0  2  0  0  0  0  0  0  0  0  0
    8.8767    4.3103    0.8379 C   0  0  0  0  0  0  0  0  0  0  0  0
    6.6523    3.8530   -0.3469 C   0  0  0  0  0  0  0  0  0  0  0  0
    5.8762    3.0688   -0.9603 O   0  0  0  0  0  0  0  0  0  0  0  0
    6.3123    5.2483   -0.2394 N   0  0  0  0  0  0  0  0  0  0  0  0
    5.1849    5.8250   -0.9786 C   0  0  2  0  0  0  0  0  0  0  0  0
    5.5495    5.9758   -2.4620 C   0  0  0  0  0  0  0  0  0  0  0  0
    4.8067    7.1715   -0.4046 C   0  0  0  0  0  0  0  0  0  0  0  0
    5.6236    8.1288   -0.4980 O   0  0  0  0  0  0  0  0  0  0  0  0
    3.5353    7.4075    0.2213 N   0  0  0  0  0  0  0  0  0  0  0  0
    2.7743    6.3898    0.9513 C   0  0  1  0  0  0  0  0  0  0  0  0
    2.2878    6.9785    2.2578 C   0  0  0  0  0  0  0  0  0  0  0  0
    1.3726    8.0761    2.2825 N   0  0  0  0  0  0  0  0  0  0  0  0
    2.7027    6.5016    3.3464 O   0  0  0  0  0  0  0  0  0  0  0  0
    1.6153    5.8768    0.0796 C   0  0  0  0  0  0  0  0  0  0  0  0
    0.5340    4.7179    1.0049 S   0  0  0  0  0  0  0  0  0  0  0  0
    0.0525    3.6860   -0.4299 C   0  0  0  0  0  0  0  0  0  0  0  0
   -9.7464    6.9472   -0.9032 H   0  0  0  0  0  0  0  0  0  0  0  0
  -11.3124    6.5606   -1.7246 H   0  0  0  0  0  0  0  0  0  0  0  0
  -11.1602    6.3649    0.0676 H   0  0  0  0  0  0  0  0  0  0  0  0
   -9.0176    4.8511    0.7226 H   0  0  0  0  0  0  0  0  0  0  0  0
   -9.4598    2.2795   -0.7993 H   0  0  0  0  0  0  0  0  0  0  0  0
   -6.9835    1.9712   -1.1224 H   0  0  0  0  0  0  0  0  0  0  0  0
   -7.6974    3.2913   -2.1174 H   0  0  0  0  0  0  0  0  0  0  0  0
   -5.1845    2.9669   -2.2867 H   0  0  0  0  0  0  0  0  0  0  0  0
   -4.5590    4.6252   -2.0684 H   0  0  0  0  0  0  0  0  0  0  0  0
   -2.2635    4.4716   -1.6289 H   0  0  0  0  0  0  0  0  0  0  0  0
   -0.7124    1.7363    1.3003 H   0  0  0  0  0  0  0  0  0  0  0  0
   -4.9018    1.7062    0.3472 H   0  0  0  0  0  0  0  0  0  0  0  0
   -3.7443    0.8709    2.7143 H   0  0  0  0  0  0  0  0  0  0  0  0
   -2.1139    0.1886    2.4121 H   0  0  0  0  0  0  0  0  0  0  0  0
   -2.1806   -0.5634   -0.5782 H   0  0  0  0  0  0  0  0  0  0  0  0
   -1.5487   -1.6055    0.7592 H   0  0  0  0  0  0  0  0  0  0  0  0
   -2.9814   -3.4894   -0.0611 H   0  0  0  0  0  0  0  0  0  0  0  0
   -3.8073   -1.4974   -2.2066 H   0  0  0  0  0  0  0  0  0  0  0  0
   -6.2455   -4.9360   -1.5691 H   0  0  0  0  0  0  0  0  0  0  0  0
   -4.4021   -6.5608   -1.3364 H   0  0  0  0  0  0  0  0  0  0  0  0
   -4.3721   -5.6629   -2.8908 H   0  0  0  0  0  0  0  0  0  0  0  0
   -3.1968   -5.2543   -1.5945 H   0  0  0  0  0  0  0  0  0  0  0  0
   -4.4838   -5.0459    0.7219 H   0  0  0  0  0  0  0  0  0  0  0  0
   -7.4225   -3.0357   -0.5073 H   0  0  0  0  0  0  0  0  0  0  0  0
   -8.9105   -5.1587    1.1717 H   0  0  0  0  0  0  0  0  0  0  0  0
   -9.5721   -4.2305   -0.2311 H   0  0  0  0  0  0  0  0  0  0  0  0
   -8.2379   -5.4115   -0.4840 H   0  0  0  0  0  0  0  0  0  0  0  0
   -8.6592   -2.8764    2.2637 H   0  0  0  0  0  0  0  0  0  0  0  0
   -8.2065    0.1303   -0.3786 H   0  0  0  0  0  0  0  0  0  0  0  0
   -9.9108   -1.6195   -0.6323 H   0  0  0  0  0  0  0  0  0  0  0  0
  -10.6461   -1.1960    0.9719 H   0  0  0  0  0  0  0  0  0  0  0  0
  -10.7144   -0.0290   -0.4015 H   0  0  0  0  0  0  0  0  0  0  0  0
   -9.3984    0.7998    2.3576 H   0  0  0  0  0  0  0  0  0  0  0  0
    0.6130   -3.0173   -1.4070 H   0  0  0  0  0  0  0  0  0  0  0  0
   -1.1102   -4.4158    0.6958 H   0  0  0  0  0  0  0  0  0  0  0  0
    0.9682   -4.2977    2.1295 H   0  0  0  0  0  0  0  0  0  0  0  0
    1.7077   -3.2047    0.8941 H   0  0  0  0  0  0  0  0  0  0  0  0
    0.2224   -2.7043    1.7697 H   0  0  0  0  0  0  0  0  0  0  0  0
    1.5440   -5.0532   -1.9758 H   0  0  0  0  0  0  0  0  0  0  0  0
    3.2582   -6.7696   -1.6030 H   0  0  0  0  0  0  0  0  0  0  0  0
    3.8720   -7.5591    0.6342 H   0  0  0  0  0  0  0  0  0  0  0  0
    2.6487   -6.4720    1.4080 H   0  0  0  0  0  0  0  0  0  0  0  0
    2.1361   -7.8724    0.3624 H   0  0  0  0  0  0  0  0  0  0  0  0
    5.8578   -5.7113   -1.2002 H   0  0  0  0  0  0  0  0  0  0  0  0
    5.5121   -6.1413    1.5734 H   0  0  0  0  0  0  0  0  0  0  0  0
    6.3598   -3.9541    2.6008 H   0  0  0  0  0  0  0  0  0  0  0  0
    5.9036   -3.1428    1.0474 H   0  0  0  0  0  0  0  0  0  0  0  0
    4.6598   -3.9785    2.0287 H   0  0  0  0  0  0  0  0  0  0  0  0
    9.3634   -4.9150    1.2726 H   0  0  0  0  0  0  0  0  0  0  0  0
    7.4733   -3.3587   -0.5461 H   0  0  0  0  0  0  0  0  0  0  0  0
    8.7938   -4.8994   -1.8973 H   0  0  0  0  0  0  0  0  0  0  0  0
    9.4059   -3.2206   -2.1361 H   0  0  0  0  0  0  0  0  0  0  0  0
   10.3217   -4.3784   -1.0954 H   0  0  0  0  0  0  0  0  0  0  0  0
    7.3028   -1.2410    0.4741 H   0  0  0  0  0  0  0  0  0  0  0  0
    8.5043    0.6331   -0.5740 H   0  0  0  0  0  0  0  0  0  0  0  0
   10.7875    0.0046    1.4022 H   0  0  0  0  0  0  0  0  0  0  0  0
   10.6732    1.4248    0.3070 H   0  0  0  0  0  0  0  0  0  0  0  0
   10.8264   -0.2141   -0.4063 H   0  0  0  0  0  0  0  0  0  0  0  0
    6.9376    2.6447    2.0566 H   0  0  0  0  0  0  0  0  0  0  0  0
    8.4591    2.7844   -0.5844 H   0  0  0  0  0  0  0  0  0  0  0  0
    9.8095    3.8043    1.1585 H   0  0  0  0  0  0  0  0  0  0  0  0
    8.4281    4.8039    1.7240 H   0  0  0  0  0  0  0  0  0  0  0  0
    9.1427    5.0708    0.0717 H   0  0  0  0  0  0  0  0  0  0  0  0
    6.8862    5.8832    0.3605 H   0  0  0  0  0  0  0  0  0  0  0  0
    4.3190    5.1377   -0.9190 H   0  0  0  0  0  0  0  0  0  0  0  0
    5.7881    4.9873   -2.9085 H   0  0  0  0  0  0  0  0  0  0  0  0
    4.6959    6.4137   -3.0240 H   0  0  0  0  0  0  0  0  0  0  0  0
    6.4398    6.6321   -2.5804 H   0  0  0  0  0  0  0  0  0  0  0  0
    3.2009    8.4005    0.2393 H   0  0  0  0  0  0  0  0  0  0  0  0
    3.4345    5.5318    1.1934 H   0  0  0  0  0  0  0  0  0  0  0  0
    1.0975    8.5091    3.1930 H   0  0  0  0  0  0  0  0  0  0  0  0
    1.0342    8.5117    1.3933 H   0  0  0  0  0  0  0  0  0  0  0  0
    2.0446    5.3667   -0.8044 H   0  0  0  0  0  0  0  0  0  0  0  0
    0.9961    6.7274   -0.2833 H   0  0  0  0  0  0  0  0  0  0  0  0
    0.0785    4.2803   -1.3689 H   0  0  0  0  0  0  0  0  0  0  0  0
    0.7790    2.8528   -0.5370 H   0  0  0  0  0  0  0  0  0  0  0  0
  1  2  1  0
  2  3  2  0
  2  4  1  0
  4  5  1  0
  5  6  1  0
  6  7  1  0
  7  8  1  0
  8  9  1  0
  9 10  1  0
 10 11  2  0
 11 12  1  0
 12 13  2  0
 13 14  1  0
 13 15  1  0
 15 16  1  0
 16 17  1  0
 17 18  1  0
 18 19  1  0
 19 20  1  0
 20 21  2  0
 20 22  1  0
 22 23  1  0
 22 24  1  0
 24 25  1  0
 25 26  2  0
 25 27  1  0
 27 28  1  0
 27 29  1  0
 29 30  1  0
 30 31  2  0
 30 32  1  0
 32 33  1  0
 32 34  1  0
 34 35  1  0
 35 36  2  0
 18 37  1  0
 37 38  2  0
 37 39  1  0
 39 40  1  0
 40 41  1  0
 40 42  1  0
 42 43  2  0
 42 44  1  0
 44 45  1  0
 45 46  1  0
 45 47  1  0
 47 48  2  0
 47 49  1  0
 49 50  1  0
 50 51  1  0
 50 52  1  0
 52 53  2  0
 52 54  1  0
 54 55  1  0
 55 56  1  0
 55 57  1  0
 57 58  2  0
 57 59  1  0
 59 60  1  0
 60 61  1  0
 60 62  1  0
 62 63  2  0
 62 64  1  0
 64 65  1  0
 65 66  1  0
 65 67  1  0
 67 68  2  0
 67 69  1  0
 69 70  1  0
 70 71  1  0
 70 72  1  0
 72 73  2  0
 72 74  1  0
 74 75  1  0
 75 76  1  0
 76 77  1  0
 76 78  2  0
 75 79  1  0
 79 80  1  0
 80 81  1  0
 35  5  1  0
 14  9  2  0
 81 11  1  0
  1 82  1  0
  1 83  1  0
  1 84  1  0
  4 85  1  0
  5 86  1  6
  6 87  1  0
  6 88  1  0
  8 89  1  0
  8 90  1  0
 10 91  1  0
 12 92  1  0
 14 93  1  0
 15 94  1  0
 15 95  1  0
 17 96  1  0
 17 97  1  0
 18 98  1  1
 19 99  1  0
 22100  1  1
 23101  1  0
 23102  1  0
 23103  1  0
 24104  1  0
 27105  1  6
 28106  1  0
 28107  1  0
 28108  1  0
 29109  1  0
 32110  1  6
 33111  1  0
 33112  1  0
 33113  1  0
 34114  1  0
 39115  1  0
 40116  1  1
 41117  1  0
 41118  1  0
 41119  1  0
 44120  1  0
 45121  1  6
 46122  1  0
 46123  1  0
 46124  1  0
 49125  1  0
 50126  1  1
 51127  1  0
 51128  1  0
 51129  1  0
 54130  1  0
 55131  1  6
 56132  1  0
 56133  1  0
 56134  1  0
 59135  1  0
 60136  1  6
 61137  1  0
 61138  1  0
 61139  1  0
 64140  1  0
 65141  1  6
 66142  1  0
 66143  1  0
 66144  1  0
 69145  1  0
 70146  1  6
 71147  1  0
 71148  1  0
 71149  1  0
 74150  1  0
 75151  1  1
 77152  1  0
 77153  1  0
 79154  1  0
 79155  1  0
 81156  1  0
 81157  1  0
M  END
