
     RDKit          3D

167169  0  0  0  0  0  0  0  0999 V2000
   10.5387    6.2183   -0.5948 C   0  0  0  0  0  0  0  0  0  0  0  0
    9.9124    4.8702   -0.7498 C   0  0  0  0  0  0  0  0  0  0  0  0
   10.5036    3.9818   -1.4177 O   0  0  0  0  0  0  0  0  0  0  0  0
    8.6580    4.5867   -0.1174 N   0  0  0  0  0  0  0  0  0  0  0  0
    8.0612    3.2461   -0.1612 C   0  0  2  0  0  0  0  0  0  0  0  0
    6.5469    3.3099    0.0742 C   0  0  0  0  0  0  0  0  0  0  0  0
    5.7223    4.4513   -1.0957 S   0  0  0  0  0  0  0  0  0  0  0  0
    4.2411    3.4322   -1.4422 C   0  0  0  0  0  0  0  0  0  0  0  0
    3.4797    3.1086   -0.1836 C   0  0  0  0  0  0  0  0  0  0  0  0
    3.4265    1.7890    0.2927 C   0  0  0  0  0  0  0  0  0  0  0  0
    2.7167    1.4806    1.4593 C   0  0  0  0  0  0  0  0  0  0  0  0
    2.0666    2.5081    2.1635 C   0  0  0  0  0  0  0  0  0  0  0  0
    2.1100    3.8304    1.6981 C   0  0  0  0  0  0  0  0  0  0  0  0
    2.7991    4.1170    0.5110 C   0  0  0  0  0  0  0  0  0  0  0  0
    1.3736    4.9117    2.4426 C   0  0  0  0  0  0  0  0  0  0  0  0
   -0.3931    4.9145    1.9848 S   0  0  0  0  0  0  0  0  0  0  0  0
   -0.1872    5.7509    0.3713 C   0  0  0  0  0  0  0  0  0  0  0  0
   -1.5319    6.2948   -0.1303 C   0  0  1  0  0  0  0  0  0  0  0  0
   -1.3333    7.0483   -1.4271 C   0  0  0  0  0  0  0  0  0  0  0  0
   -0.9152    6.3650   -2.6031 N   0  0  0  0  0  0  0  0  0  0  0  0
   -1.4735    8.3052   -1.4419 O   0  0  0  0  0  0  0  0  0  0  0  0
   -2.4909    5.2080   -0.3248 N   0  0  0  0  0  0  0  0  0  0  0  0
   -3.6169    5.0237    0.5421 C   0  0  0  0  0  0  0  0  0  0  0  0
   -3.6339    4.0276    1.3137 O   0  0  0  0  0  0  0  0  0  0  0  0
   -4.8457    5.8886    0.4498 C   0  0  1  0  0  0  0  0  0  0  0  0
   -4.5539    7.3867    0.5400 C   0  0  0  0  0  0  0  0  0  0  0  0
   -5.5762    5.5996   -0.7944 N   0  0  0  0  0  0  0  0  0  0  0  0
   -7.0080    5.6183   -0.9341 C   0  0  0  0  0  0  0  0  0  0  0  0
   -7.5090    5.3903   -2.0640 O   0  0  0  0  0  0  0  0  0  0  0  0
   -7.9266    5.8181    0.2551 C   0  0  1  0  0  0  0  0  0  0  0  0
   -9.3078    6.3482   -0.1371 C   0  0  0  0  0  0  0  0  0  0  0  0
   -8.0077    4.5681    1.0219 N   0  0  0  0  0  0  0  0  0  0  0  0
   -8.5594    3.3587    0.4917 C   0  0  0  0  0  0  0  0  0  0  0  0
   -9.6178    3.4009   -0.1944 O   0  0  0  0  0  0  0  0  0  0  0  0
   -7.9116    2.0266    0.8066 C   0  0  1  0  0  0  0  0  0  0  0  0
   -8.7006    1.2610    1.8751 C   0  0  0  0  0  0  0  0  0  0  0  0
   -7.7207    1.2158   -0.4063 N   0  0  0  0  0  0  0  0  0  0  0  0
   -8.7518    0.4500   -1.0328 C   0  0  0  0  0  0  0  0  0  0  0  0
   -9.9070    0.9424   -1.1600 O   0  0  0  0  0  0  0  0  0  0  0  0
   -8.5189   -0.9850   -1.4507 C   0  0  1  0  0  0  0  0  0  0  0  0
   -9.0196   -1.2266   -2.8873 C   0  0  0  0  0  0  0  0  0  0  0  0
   -7.1155   -1.3738   -1.3444 N   0  0  0  0  0  0  0  0  0  0  0  0
   -6.7113   -2.7452   -1.4055 C   0  0  0  0  0  0  0  0  0  0  0  0
   -6.1744   -3.1695   -2.4682 O   0  0  0  0  0  0  0  0  0  0  0  0
   -6.7297   -3.6531   -0.1895 C   0  0  1  0  0  0  0  0  0  0  0  0
   -7.6598   -3.1827    0.9292 C   0  0  0  0  0  0  0  0  0  0  0  0
   -7.1106   -5.0066   -0.5991 N   0  0  0  0  0  0  0  0  0  0  0  0
   -6.3530   -6.2224   -0.4121 C   0  0  0  0  0  0  0  0  0  0  0  0
   -6.8130   -7.2890   -0.9151 O   0  0  0  0  0  0  0  0  0  0  0  0
   -5.1117   -6.3108    0.4435 C   0  0  1  0  0  0  0  0  0  0  0  0
   -5.4929   -6.7382    1.8583 C   0  0  0  0  0  0  0  0  0  0  0  0
   -4.1690   -7.2868   -0.1233 N   0  0  0  0  0  0  0  0  0  0  0  0
   -2.8400   -7.0427   -0.6330 C   0  0  0  0  0  0  0  0  0  0  0  0
   -2.1765   -8.0400   -1.0251 O   0  0  0  0  0  0  0  0  0  0  0  0
   -2.1743   -5.6817   -0.7305 C   0  0  1  0  0  0  0  0  0  0  0  0
   -2.9447   -4.6990   -1.6198 C   0  0  0  0  0  0  0  0  0  0  0  0
   -1.8970   -5.1170    0.5936 N   0  0  0  0  0  0  0  0  0  0  0  0
   -0.6315   -4.5372    0.9420 C   0  0  0  0  0  0  0  0  0  0  0  0
   -0.5999   -3.3178    1.2619 O   0  0  0  0  0  0  0  0  0  0  0  0
    0.6289   -5.3611    1.1326 C   0  0  1  0  0  0  0  0  0  0  0  0
    0.5489   -6.8138    0.6444 C   0  0  0  0  0  0  0  0  0  0  0  0
    1.8146   -4.6990    0.5727 N   0  0  0  0  0  0  0  0  0  0  0  0
    1.8064   -3.9279   -0.6462 C   0  0  0  0  0  0  0  0  0  0  0  0
    0.8981   -4.1076   -1.4993 O   0  0  0  0  0  0  0  0  0  0  0  0
    2.8821   -2.9007   -0.9283 C   0  0  1  0  0  0  0  0  0  0  0  0
    3.1947   -2.0250    0.2990 C   0  0  0  0  0  0  0  0  0  0  0  0
    1.7627   -0.9854    0.7714 S   0  0  0  0  0  0  0  0  0  0  0  0
    2.6693    0.0665    1.9642 C   0  0  0  0  0  0  0  0  0  0  0  0
    4.1191   -3.5011   -1.4496 N   0  0  0  0  0  0  0  0  0  0  0  0
    4.6833   -4.7009   -0.8998 C   0  0  0  0  0  0  0  0  0  0  0  0
    4.1131   -5.8087   -1.0934 O   0  0  0  0  0  0  0  0  0  0  0  0
    5.9946   -4.6381   -0.1569 C   0  0  1  0  0  0  0  0  0  0  0  0
    6.0009   -5.5293    1.0822 C   0  0  0  0  0  0  0  0  0  0  0  0
    7.0914   -5.0199   -1.0526 N   0  0  0  0  0  0  0  0  0  0  0  0
    8.1333   -4.1032   -1.4033 C   0  0  0  0  0  0  0  0  0  0  0  0
    8.1819   -3.6569   -2.5821 O   0  0  0  0  0  0  0  0  0  0  0  0
    9.1530   -3.6698   -0.3793 C   0  0  1  0  0  0  0  0  0  0  0  0
   10.5521   -3.5910   -1.0192 C   0  0  0  0  0  0  0  0  0  0  0  0
    8.7262   -2.4012    0.2280 N   0  0  0  0  0  0  0  0  0  0  0  0
    9.4322   -1.1524    0.1515 C   0  0  0  0  0  0  0  0  0  0  0  0
   10.6106   -1.0646    0.6130 O   0  0  0  0  0  0  0  0  0  0  0  0
    8.7270    0.1088   -0.2874 C   0  0  1  0  0  0  0  0  0  0  0  0
    7.4303   -0.1932   -1.0502 C   0  0  0  0  0  0  0  0  0  0  0  0
    8.4417    0.9428    0.8856 N   0  0  0  0  0  0  0  0  0  0  0  0
    8.6883    2.3565    0.8884 C   0  0  0  0  0  0  0  0  0  0  0  0
    9.4047    2.8504    1.7966 O   0  0  0  0  0  0  0  0  0  0  0  0
   11.4783    6.2854   -1.1852 H   0  0  0  0  0  0  0  0  0  0  0  0
    9.8358    7.0045   -0.9476 H   0  0  0  0  0  0  0  0  0  0  0  0
   10.7741    6.3958    0.4791 H   0  0  0  0  0  0  0  0  0  0  0  0
    8.2327    5.3202    0.4984 H   0  0  0  0  0  0  0  0  0  0  0  0
    8.2372    2.8135   -1.1701 H   0  0  0  0  0  0  0  0  0  0  0  0
    6.1376    2.2889   -0.0283 H   0  0  0  0  0  0  0  0  0  0  0  0
    6.3271    3.6444    1.1093 H   0  0  0  0  0  0  0  0  0  0  0  0
    4.5493    2.5087   -1.9652 H   0  0  0  0  0  0  0  0  0  0  0  0
    3.5668    3.9883   -2.1214 H   0  0  0  0  0  0  0  0  0  0  0  0
    3.9338    0.9998   -0.2465 H   0  0  0  0  0  0  0  0  0  0  0  0
    1.5271    2.2783    3.0756 H   0  0  0  0  0  0  0  0  0  0  0  0
    2.8158    5.1286    0.1387 H   0  0  0  0  0  0  0  0  0  0  0  0
    1.4503    4.7256    3.5323 H   0  0  0  0  0  0  0  0  0  0  0  0
    1.8292    5.9083    2.2490 H   0  0  0  0  0  0  0  0  0  0  0  0
    0.2373    5.0324   -0.3545 H   0  0  0  0  0  0  0  0  0  0  0  0
    0.5193    6.6042    0.4796 H   0  0  0  0  0  0  0  0  0  0  0  0
   -1.8949    7.0021    0.6395 H   0  0  0  0  0  0  0  0  0  0  0  0
   -0.6683    6.8958   -3.4664 H   0  0  0  0  0  0  0  0  0  0  0  0
   -0.7864    5.3246   -2.6197 H   0  0  0  0  0  0  0  0  0  0  0  0
   -2.1923    4.3818   -0.8920 H   0  0  0  0  0  0  0  0  0  0  0  0
   -5.4759    5.6357    1.3299 H   0  0  0  0  0  0  0  0  0  0  0  0
   -3.9751    7.7307   -0.3437 H   0  0  0  0  0  0  0  0  0  0  0  0
   -4.0018    7.6090    1.4713 H   0  0  0  0  0  0  0  0  0  0  0  0
   -5.5039    7.9594    0.5573 H   0  0  0  0  0  0  0  0  0  0  0  0
   -5.0032    5.4873   -1.6692 H   0  0  0  0  0  0  0  0  0  0  0  0
   -7.4847    6.6033    0.9062 H   0  0  0  0  0  0  0  0  0  0  0  0
   -9.9815    6.3560    0.7398 H   0  0  0  0  0  0  0  0  0  0  0  0
   -9.7722    5.7406   -0.9404 H   0  0  0  0  0  0  0  0  0  0  0  0
   -9.2197    7.3875   -0.5269 H   0  0  0  0  0  0  0  0  0  0  0  0
   -7.3591    4.4787    1.8365 H   0  0  0  0  0  0  0  0  0  0  0  0
   -6.9024    2.2291    1.2305 H   0  0  0  0  0  0  0  0  0  0  0  0
   -8.7351    1.8550    2.8164 H   0  0  0  0  0  0  0  0  0  0  0  0
   -8.2038    0.2929    2.0826 H   0  0  0  0  0  0  0  0  0  0  0  0
   -9.7374    1.0705    1.5429 H   0  0  0  0  0  0  0  0  0  0  0  0
   -6.8921    1.4571   -1.0095 H   0  0  0  0  0  0  0  0  0  0  0  0
   -9.1387   -1.6146   -0.7816 H   0  0  0  0  0  0  0  0  0  0  0  0
   -8.4318   -0.6160   -3.6057 H   0  0  0  0  0  0  0  0  0  0  0  0
   -8.9199   -2.2978   -3.1534 H   0  0  0  0  0  0  0  0  0  0  0  0
  -10.0928   -0.9577   -2.9755 H   0  0  0  0  0  0  0  0  0  0  0  0
   -6.4070   -0.6848   -1.6963 H   0  0  0  0  0  0  0  0  0  0  0  0
   -5.7090   -3.6117    0.2228 H   0  0  0  0  0  0  0  0  0  0  0  0
   -7.4526   -2.1257    1.2000 H   0  0  0  0  0  0  0  0  0  0  0  0
   -8.7191   -3.3049    0.6346 H   0  0  0  0  0  0  0  0  0  0  0  0
   -7.4895   -3.8043    1.8332 H   0  0  0  0  0  0  0  0  0  0  0  0
   -8.0362   -5.1064   -1.0719 H   0  0  0  0  0  0  0  0  0  0  0  0
   -4.6287   -5.3412    0.5349 H   0  0  0  0  0  0  0  0  0  0  0  0
   -6.1519   -5.9771    2.3219 H   0  0  0  0  0  0  0  0  0  0  0  0
   -4.5827   -6.8441    2.4825 H   0  0  0  0  0  0  0  0  0  0  0  0
   -6.0291   -7.7111    1.8390 H   0  0  0  0  0  0  0  0  0  0  0  0
   -4.4876   -8.2845   -0.1426 H   0  0  0  0  0  0  0  0  0  0  0  0
   -1.2153   -5.8341   -1.2683 H   0  0  0  0  0  0  0  0  0  0  0  0
   -3.2893   -5.2021   -2.5537 H   0  0  0  0  0  0  0  0  0  0  0  0
   -2.2768   -3.8503   -1.8991 H   0  0  0  0  0  0  0  0  0  0  0  0
   -3.8222   -4.2451   -1.1092 H   0  0  0  0  0  0  0  0  0  0  0  0
   -2.6959   -4.8161    1.1986 H   0  0  0  0  0  0  0  0  0  0  0  0
    0.7656   -5.4211    2.2372 H   0  0  0  0  0  0  0  0  0  0  0  0
    1.4398   -7.3725    1.0225 H   0  0  0  0  0  0  0  0  0  0  0  0
   -0.3604   -7.3068    1.0576 H   0  0  0  0  0  0  0  0  0  0  0  0
    0.5604   -6.8811   -0.4702 H   0  0  0  0  0  0  0  0  0  0  0  0
    2.7065   -4.7947    1.1076 H   0  0  0  0  0  0  0  0  0  0  0  0
    2.4860   -2.2161   -1.7173 H   0  0  0  0  0  0  0  0  0  0  0  0
    4.0536   -1.3707    0.0431 H   0  0  0  0  0  0  0  0  0  0  0  0
    3.5015   -2.6493    1.1656 H   0  0  0  0  0  0  0  0  0  0  0  0
    2.1466    0.0043    2.9409 H   0  0  0  0  0  0  0  0  0  0  0  0
    3.7143   -0.2848    2.1267 H   0  0  0  0  0  0  0  0  0  0  0  0
    4.8117   -2.8351   -1.8503 H   0  0  0  0  0  0  0  0  0  0  0  0
    6.1301   -3.5959    0.1874 H   0  0  0  0  0  0  0  0  0  0  0  0
    5.1775   -5.2424    1.7675 H   0  0  0  0  0  0  0  0  0  0  0  0
    5.8926   -6.5995    0.8055 H   0  0  0  0  0  0  0  0  0  0  0  0
    6.9640   -5.4101    1.6265 H   0  0  0  0  0  0  0  0  0  0  0  0
    6.9979   -5.8959   -1.6202 H   0  0  0  0  0  0  0  0  0  0  0  0
    9.1991   -4.4352    0.4222 H   0  0  0  0  0  0  0  0  0  0  0  0
   10.8072   -4.5536   -1.5172 H   0  0  0  0  0  0  0  0  0  0  0  0
   10.5888   -2.7730   -1.7716 H   0  0  0  0  0  0  0  0  0  0  0  0
   11.3218   -3.4011   -0.2376 H   0  0  0  0  0  0  0  0  0  0  0  0
    7.8405   -2.3917    0.7744 H   0  0  0  0  0  0  0  0  0  0  0  0
    9.4138    0.6526   -0.9787 H   0  0  0  0  0  0  0  0  0  0  0  0
    6.6487   -0.5925   -0.3639 H   0  0  0  0  0  0  0  0  0  0  0  0
    7.0485    0.7343   -1.5387 H   0  0  0  0  0  0  0  0  0  0  0  0
    7.6203   -0.9375   -1.8515 H   0  0  0  0  0  0  0  0  0  0  0  0
    8.3151    0.4730    1.8088 H   0  0  0  0  0  0  0  0  0  0  0  0
  1  2  1  0
  2  3  2  0
  2  4  1  0
  4  5  1  0
  5  6  1  0
  6  7  1  0
  7  8  1  0
  8  9  1  0
  9 10  1  0
 10 11  2  0
 11 12  1  0
 12 13  2  0
 13 14  1  0
 13 15  1  0
 15 16  1  0
 16 17  1  0
 17 18  1  0
 18 19  1  0
 19 20  1  0
 19 21  2  0
 18 22  1  0
 22 23  1  0
 23 24  2  0
 23 25  1  0
 25 26  1  0
 25 27  1  0
 27 28  1  0
 28 29  2  0
 28 30  1  0
 30 31  1  0
 30 32  1  0
 32 33  1  0
 33 34  2  0
 33 35  1  0
 35 36  1  0
 35 37  1  0
 37 38  1  0
 38 39  2  0
 38 40  1  0
 40 41  1  0
 40 42  1  0
 42 43  1  0
 43 44  2  0
 43 45  1  0
 45 46  1  0
 45 47  1  0
 47 48  1  0
 48 49  2  0
 48 50  1  0
 50 51  1  0
 50 52  1  0
 52 53  1  0
 53 54  2  0
 53 55  1  0
 55 56  1  0
 55 57  1  0
 57 58  1  0
 58 59  2  0
 58 60  1  0
 60 61  1  0
 60 62  1  0
 62 63  1  0
 63 64  2  0
 63 65  1  0
 65 66  1  0
 66 67  1  0
 67 68  1  0
 65 69  1  0
 69 70  1  0
 70 71  2  0
 70 72  1  0
 72 73  1  0
 72 74  1  0
 74 75  1  0
 75 76  2  0
 75 77  1  0
 77 78  1  0
 77 79  1  0
 79 80  1  0
 80 81  2  0
 80 82  1  0
 82 83  1  0
 82 84  1  0
 84 85  1  0
 85 86  2  0
 85  5  1  0
 14  9  2  0
 68 11  1  0
  1 87  1  0
  1 88  1  0
  1 89  1  0
  4 90  1  0
  5 91  1  6
  6 92  1  0
  6 93  1  0
  8 94  1  0
  8 95  1  0
 10 96  1  0
 12 97  1  0
 14 98  1  0
 15 99  1  0
 15100  1  0
 17101  1  0
 17102  1  0
 18103  1  1
 20104  1  0
 20105  1  0
 22106  1  0
 25107  1  1
 26108  1  0
 26109  1  0
 26110  1  0
 27111  1  0
 30112  1  1
 31113  1  0
 31114  1  0
 31115  1  0
 32116  1  0
 35117  1  1
 36118  1  0
 36119  1  0
 36120  1  0
 37121  1  0
 40122  1  1
 41123  1  0
 41124  1  0
 41125  1  0
 42126  1  0
 45127  1  1
 46128  1  0
 46129  1  0
 46130  1  0
 47131  1  0
 50132  1  1
 51133  1  0
 51134  1  0
 51135  1  0
 52136  1  0
 55137  1  6
 56138  1  0
 56139  1  0
 56140  1  0
 57141  1  0
 60142  1  1
 61143  1  0
 61144  1  0
 61145  1  0
 62146  1  0
 65147  1  6
 66148  1  0
 66149  1  0
 68150  1  0
 68151  1  0
 69152  1  0
 72153  1  1
 73154  1  0
 73155  1  0
 73156  1  0
 74157  1  0
 77158  1  1
 78159  1  0
 78160  1  0
 78161  1  0
 79162  1  0
 82163  1  6
 83164  1  0
 83165  1  0
 83166  1  0
 84167  1  0
M  END
