
     RDKit          3D

177179  0  0  0  0  0  0  0  0999 V2000
  -10.9675    2.5278    4.2100 C   0  0  0  0  0  0  0  0  0  0  0  0
  -10.2421    1.8931    3.0645 C   0  0  0  0  0  0  0  0  0  0  0  0
   -9.7665    0.7347    3.2043 O   0  0  0  0  0  0  0  0  0  0  0  0
  -10.0709    2.6069    1.8288 N   0  0  0  0  0  0  0  0  0  0  0  0
   -9.3193    2.0550    0.6926 C   0  0  2  0  0  0  0  0  0  0  0  0
   -7.8432    2.4759    0.8026 C   0  0  0  0  0  0  0  0  0  0  0  0
   -7.6116    4.2906    0.6160 S   0  0  0  0  0  0  0  0  0  0  0  0
   -5.9782    4.4043    1.4320 C   0  0  0  0  0  0  0  0  0  0  0  0
   -4.9037    3.7957    0.5737 C   0  0  0  0  0  0  0  0  0  0  0  0
   -4.5575    2.4523    0.7440 C   0  0  0  0  0  0  0  0  0  0  0  0
   -3.6014    1.8428   -0.0822 C   0  0  0  0  0  0  0  0  0  0  0  0
   -2.9432    2.6148   -1.0611 C   0  0  0  0  0  0  0  0  0  0  0  0
   -3.2483    3.9762   -1.2125 C   0  0  0  0  0  0  0  0  0  0  0  0
   -4.2535    4.5529   -0.4157 C   0  0  0  0  0  0  0  0  0  0  0  0
   -2.5685    4.8056   -2.2736 C   0  0  0  0  0  0  0  0  0  0  0  0
   -0.7433    4.6258   -2.2771 S   0  0  0  0  0  0  0  0  0  0  0  0
   -0.4553    5.0037   -0.5028 C   0  0  0  0  0  0  0  0  0  0  0  0
    0.7430    5.9491   -0.3078 C   0  0  1  0  0  0  0  0  0  0  0  0
    0.4665    7.2902   -0.9369 C   0  0  0  0  0  0  0  0  0  0  0  0
   -0.5721    8.1328   -0.4409 N   0  0  0  0  0  0  0  0  0  0  0  0
    1.1419    7.6613   -1.9365 O   0  0  0  0  0  0  0  0  0  0  0  0
    1.0106    6.1228    1.1276 N   0  0  0  0  0  0  0  0  0  0  0  0
    2.3043    6.3691    1.6957 C   0  0  0  0  0  0  0  0  0  0  0  0
    2.4553    6.2126    2.9378 O   0  0  0  0  0  0  0  0  0  0  0  0
    3.4845    6.8164    0.8666 C   0  0  1  0  0  0  0  0  0  0  0  0
    4.2058    7.9931    1.5422 C   0  0  0  0  0  0  0  0  0  0  0  0
    4.3554    5.6644    0.5909 N   0  0  0  0  0  0  0  0  0  0  0  0
    5.7807    5.6656    0.7567 C   0  0  0  0  0  0  0  0  0  0  0  0
    6.2724    5.8532    1.9056 O   0  0  0  0  0  0  0  0  0  0  0  0
    6.6859    5.2823   -0.3901 C   0  0  1  0  0  0  0  0  0  0  0  0
    6.1182    5.7386   -1.7387 C   0  0  0  0  0  0  0  0  0  0  0  0
    8.0132    5.8752   -0.2036 N   0  0  0  0  0  0  0  0  0  0  0  0
    9.2281    5.2968   -0.7165 C   0  0  0  0  0  0  0  0  0  0  0  0
   10.0891    6.0583   -1.2415 O   0  0  0  0  0  0  0  0  0  0  0  0
    9.5512    3.8262   -0.5677 C   0  0  1  0  0  0  0  0  0  0  0  0
    9.3978    3.3866    0.8941 C   0  0  0  0  0  0  0  0  0  0  0  0
    8.7207    3.0089   -1.4611 N   0  0  0  0  0  0  0  0  0  0  0  0
    9.0120    1.6272   -1.6833 C   0  0  0  0  0  0  0  0  0  0  0  0
    9.9425    1.3200   -2.4806 O   0  0  0  0  0  0  0  0  0  0  0  0
    8.2705    0.5388   -0.9418 C   0  0  1  0  0  0  0  0  0  0  0  0
    6.8291    0.9441   -0.6193 C   0  0  0  0  0  0  0  0  0  0  0  0
    8.2584   -0.6857   -1.7453 N   0  0  0  0  0  0  0  0  0  0  0  0
    9.0898   -1.8413   -1.5209 C   0  0  0  0  0  0  0  0  0  0  0  0
    9.4113   -2.5474   -2.5183 O   0  0  0  0  0  0  0  0  0  0  0  0
    9.5850   -2.2716   -0.1560 C   0  0  1  0  0  0  0  0  0  0  0  0
   10.8973   -1.5687    0.2102 C   0  0  0  0  0  0  0  0  0  0  0  0
    8.5601   -2.0731    0.8722 N   0  0  0  0  0  0  0  0  0  0  0  0
    7.4616   -2.9742    1.1101 C   0  0  0  0  0  0  0  0  0  0  0  0
    6.6566   -2.7129    2.0516 O   0  0  0  0  0  0  0  0  0  0  0  0
    7.3201   -4.2857    0.3673 C   0  0  1  0  0  0  0  0  0  0  0  0
    8.1289   -5.3759    1.0772 C   0  0  0  0  0  0  0  0  0  0  0  0
    5.9162   -4.7034    0.2994 N   0  0  0  0  0  0  0  0  0  0  0  0
    5.4576   -5.5385   -0.7792 C   0  0  0  0  0  0  0  0  0  0  0  0
    5.7790   -5.2485   -1.9623 O   0  0  0  0  0  0  0  0  0  0  0  0
    4.5996   -6.7620   -0.5315 C   0  0  1  0  0  0  0  0  0  0  0  0
    5.2444   -7.9861   -1.1897 C   0  0  0  0  0  0  0  0  0  0  0  0
    4.4571   -7.0285    0.9091 N   0  0  0  0  0  0  0  0  0  0  0  0
    3.2373   -7.3816    1.5923 C   0  0  0  0  0  0  0  0  0  0  0  0
    3.3144   -7.7205    2.8037 O   0  0  0  0  0  0  0  0  0  0  0  0
    1.8820   -7.4055    0.9075 C   0  0  1  0  0  0  0  0  0  0  0  0
    1.7225   -8.6719    0.0612 C   0  0  0  0  0  0  0  0  0  0  0  0
    0.8030   -7.3722    1.9112 N   0  0  0  0  0  0  0  0  0  0  0  0
   -0.3411   -6.4999    1.8867 C   0  0  0  0  0  0  0  0  0  0  0  0
   -1.2963   -6.7415    2.6746 O   0  0  0  0  0  0  0  0  0  0  0  0
   -0.4693   -5.3408    0.9256 C   0  0  1  0  0  0  0  0  0  0  0  0
   -0.9545   -5.8337   -0.4477 C   0  0  0  0  0  0  0  0  0  0  0  0
   -1.3488   -4.3094    1.4948 N   0  0  0  0  0  0  0  0  0  0  0  0
   -2.6791   -4.0426    1.0251 C   0  0  0  0  0  0  0  0  0  0  0  0
   -3.5462   -4.9515    1.0931 O   0  0  0  0  0  0  0  0  0  0  0  0
   -3.0463   -2.6942    0.4485 C   0  0  1  0  0  0  0  0  0  0  0  0
   -1.7839   -1.8599    0.1151 C   0  0  0  0  0  0  0  0  0  0  0  0
   -2.0903   -0.3899   -0.9407 S   0  0  0  0  0  0  0  0  0  0  0  0
   -3.3672    0.3703    0.1267 C   0  0  0  0  0  0  0  0  0  0  0  0
   -3.8619   -2.8888   -0.7520 N   0  0  0  0  0  0  0  0  0  0  0  0
   -5.2950   -2.7593   -0.8001 C   0  0  0  0  0  0  0  0  0  0  0  0
   -5.8414   -2.5764   -1.9182 O   0  0  0  0  0  0  0  0  0  0  0  0
   -6.1668   -2.8749    0.4328 C   0  0  1  0  0  0  0  0  0  0  0  0
   -6.7087   -1.5091    0.8801 C   0  0  0  0  0  0  0  0  0  0  0  0
   -7.2251   -3.8680    0.2046 N   0  0  0  0  0  0  0  0  0  0  0  0
   -8.6200   -3.5817    0.0060 C   0  0  0  0  0  0  0  0  0  0  0  0
   -9.4697   -4.1529    0.7467 O   0  0  0  0  0  0  0  0  0  0  0  0
   -9.0885   -2.7750   -1.1852 C   0  0  1  0  0  0  0  0  0  0  0  0
   -9.4143   -3.7303   -2.3346 C   0  0  0  0  0  0  0  0  0  0  0  0
  -10.2889   -1.9977   -0.8461 N   0  0  0  0  0  0  0  0  0  0  0  0
  -10.5979   -0.6891   -1.3618 C   0  0  0  0  0  0  0  0  0  0  0  0
  -11.8079   -0.3376   -1.4120 O   0  0  0  0  0  0  0  0  0  0  0  0
   -9.5399    0.2753   -1.8575 C   0  0  1  0  0  0  0  0  0  0  0  0
   -9.1669   -0.0179   -3.3173 C   0  0  0  0  0  0  0  0  0  0  0  0
  -10.0336    1.6519   -1.7689 N   0  0  0  0  0  0  0  0  0  0  0  0
   -9.9341    2.5063   -0.6164 C   0  0  0  0  0  0  0  0  0  0  0  0
  -10.3806    3.6837   -0.7084 O   0  0  0  0  0  0  0  0  0  0  0  0
  -11.8236    1.8894    4.5080 H   0  0  0  0  0  0  0  0  0  0  0  0
  -11.3489    3.5322    3.9284 H   0  0  0  0  0  0  0  0  0  0  0  0
  -10.2749    2.6380    5.0711 H   0  0  0  0  0  0  0  0  0  0  0  0
  -10.3360    3.6181    1.8135 H   0  0  0  0  0  0  0  0  0  0  0  0
   -9.3625    0.9484    0.7466 H   0  0  0  0  0  0  0  0  0  0  0  0
   -7.4724    2.1575    1.7982 H   0  0  0  0  0  0  0  0  0  0  0  0
   -7.2512    1.9545    0.0250 H   0  0  0  0  0  0  0  0  0  0  0  0
   -6.0101    3.9242    2.4299 H   0  0  0  0  0  0  0  0  0  0  0  0
   -5.7469    5.4769    1.5994 H   0  0  0  0  0  0  0  0  0  0  0  0
   -5.0459    1.8621    1.5123 H   0  0  0  0  0  0  0  0  0  0  0  0
   -2.2032    2.1732   -1.7126 H   0  0  0  0  0  0  0  0  0  0  0  0
   -4.5251    5.5896   -0.5548 H   0  0  0  0  0  0  0  0  0  0  0  0
   -2.9592    4.5037   -3.2683 H   0  0  0  0  0  0  0  0  0  0  0  0
   -2.8025    5.8871   -2.1492 H   0  0  0  0  0  0  0  0  0  0  0  0
   -1.3569    5.4514   -0.0366 H   0  0  0  0  0  0  0  0  0  0  0  0
   -0.2469    4.0449    0.0089 H   0  0  0  0  0  0  0  0  0  0  0  0
    1.6208    5.4798   -0.7918 H   0  0  0  0  0  0  0  0  0  0  0  0
   -1.1326    7.8607    0.3971 H   0  0  0  0  0  0  0  0  0  0  0  0
   -0.7797    9.0423   -0.9086 H   0  0  0  0  0  0  0  0  0  0  0  0
    0.2106    6.0207    1.7936 H   0  0  0  0  0  0  0  0  0  0  0  0
    3.1219    7.2053   -0.1036 H   0  0  0  0  0  0  0  0  0  0  0  0
    3.5015    8.8427    1.6807 H   0  0  0  0  0  0  0  0  0  0  0  0
    5.0437    8.3500    0.9064 H   0  0  0  0  0  0  0  0  0  0  0  0
    4.6024    7.7040    2.5405 H   0  0  0  0  0  0  0  0  0  0  0  0
    3.9357    4.8770    0.0462 H   0  0  0  0  0  0  0  0  0  0  0  0
    6.7487    4.1815   -0.3898 H   0  0  0  0  0  0  0  0  0  0  0  0
    5.1442    5.2537   -1.9481 H   0  0  0  0  0  0  0  0  0  0  0  0
    6.8142    5.4686   -2.5596 H   0  0  0  0  0  0  0  0  0  0  0  0
    5.9788    6.8446   -1.7412 H   0  0  0  0  0  0  0  0  0  0  0  0
    8.0469    6.8978    0.0215 H   0  0  0  0  0  0  0  0  0  0  0  0
   10.6170    3.6748   -0.8501 H   0  0  0  0  0  0  0  0  0  0  0  0
    9.9915    4.0474    1.5554 H   0  0  0  0  0  0  0  0  0  0  0  0
    9.7720    2.3506    1.0223 H   0  0  0  0  0  0  0  0  0  0  0  0
    8.3355    3.4231    1.2131 H   0  0  0  0  0  0  0  0  0  0  0  0
    8.1227    3.4746   -2.1783 H   0  0  0  0  0  0  0  0  0  0  0  0
    8.7846    0.3845    0.0191 H   0  0  0  0  0  0  0  0  0  0  0  0
    6.8074    1.7893    0.0952 H   0  0  0  0  0  0  0  0  0  0  0  0
    6.2811    1.2301   -1.5481 H   0  0  0  0  0  0  0  0  0  0  0  0
    6.2971    0.0886   -0.1480 H   0  0  0  0  0  0  0  0  0  0  0  0
    7.7599   -0.6387   -2.6656 H   0  0  0  0  0  0  0  0  0  0  0  0
    9.8402   -3.3476   -0.2053 H   0  0  0  0  0  0  0  0  0  0  0  0
   11.2575   -1.9525    1.1889 H   0  0  0  0  0  0  0  0  0  0  0  0
   10.7853   -0.4670    0.2930 H   0  0  0  0  0  0  0  0  0  0  0  0
   11.6700   -1.7869   -0.5543 H   0  0  0  0  0  0  0  0  0  0  0  0
    8.6641   -1.2754    1.5437 H   0  0  0  0  0  0  0  0  0  0  0  0
    7.7129   -4.1649   -0.6651 H   0  0  0  0  0  0  0  0  0  0  0  0
    9.1932   -5.0807    1.1874 H   0  0  0  0  0  0  0  0  0  0  0  0
    7.7067   -5.5692    2.0898 H   0  0  0  0  0  0  0  0  0  0  0  0
    8.0853   -6.3178    0.4880 H   0  0  0  0  0  0  0  0  0  0  0  0
    5.3416   -4.6672    1.1757 H   0  0  0  0  0  0  0  0  0  0  0  0
    3.6174   -6.5827   -1.0038 H   0  0  0  0  0  0  0  0  0  0  0  0
    4.6508   -8.8966   -0.9784 H   0  0  0  0  0  0  0  0  0  0  0  0
    5.2959   -7.8492   -2.2889 H   0  0  0  0  0  0  0  0  0  0  0  0
    6.2712   -8.1450   -0.7965 H   0  0  0  0  0  0  0  0  0  0  0  0
    5.3381   -7.1233    1.4609 H   0  0  0  0  0  0  0  0  0  0  0  0
    1.8096   -6.5276    0.2409 H   0  0  0  0  0  0  0  0  0  0  0  0
    2.3518   -8.6199   -0.8479 H   0  0  0  0  0  0  0  0  0  0  0  0
    0.6680   -8.7722   -0.2733 H   0  0  0  0  0  0  0  0  0  0  0  0
    1.9928   -9.5734    0.6477 H   0  0  0  0  0  0  0  0  0  0  0  0
    0.7886   -8.1430    2.6179 H   0  0  0  0  0  0  0  0  0  0  0  0
    0.5252   -4.8646    0.7852 H   0  0  0  0  0  0  0  0  0  0  0  0
   -1.9086   -6.3940   -0.3543 H   0  0  0  0  0  0  0  0  0  0  0  0
   -1.1067   -4.9703   -1.1292 H   0  0  0  0  0  0  0  0  0  0  0  0
   -0.2094   -6.5085   -0.9185 H   0  0  0  0  0  0  0  0  0  0  0  0
   -0.9517   -3.6698    2.2204 H   0  0  0  0  0  0  0  0  0  0  0  0
   -3.6168   -2.1483    1.2284 H   0  0  0  0  0  0  0  0  0  0  0  0
   -1.2999   -1.5209    1.0570 H   0  0  0  0  0  0  0  0  0  0  0  0
   -1.0479   -2.4891   -0.4333 H   0  0  0  0  0  0  0  0  0  0  0  0
   -4.3260   -0.1452   -0.0955 H   0  0  0  0  0  0  0  0  0  0  0  0
   -3.1166    0.2016    1.1959 H   0  0  0  0  0  0  0  0  0  0  0  0
   -3.3708   -3.1330   -1.6432 H   0  0  0  0  0  0  0  0  0  0  0  0
   -5.5611   -3.2590    1.2788 H   0  0  0  0  0  0  0  0  0  0  0  0
   -7.5557   -1.6353    1.5874 H   0  0  0  0  0  0  0  0  0  0  0  0
   -5.9176   -0.9442    1.4152 H   0  0  0  0  0  0  0  0  0  0  0  0
   -7.0326   -0.9002    0.0143 H   0  0  0  0  0  0  0  0  0  0  0  0
   -6.9816   -4.8694    0.4110 H   0  0  0  0  0  0  0  0  0  0  0  0
   -8.2737   -2.1081   -1.5064 H   0  0  0  0  0  0  0  0  0  0  0  0
   -9.7566   -3.1652   -3.2264 H   0  0  0  0  0  0  0  0  0  0  0  0
   -8.5167   -4.3189   -2.6121 H   0  0  0  0  0  0  0  0  0  0  0  0
  -10.2216   -4.4358   -2.0401 H   0  0  0  0  0  0  0  0  0  0  0  0
  -11.0844   -2.5143   -0.4073 H   0  0  0  0  0  0  0  0  0  0  0  0
   -8.6170    0.1783   -1.2538 H   0  0  0  0  0  0  0  0  0  0  0  0
   -8.7230   -1.0247   -3.4348 H   0  0  0  0  0  0  0  0  0  0  0  0
  -10.0614    0.0564   -3.9690 H   0  0  0  0  0  0  0  0  0  0  0  0
   -8.4128    0.7197   -3.6602 H   0  0  0  0  0  0  0  0  0  0  0  0
  -10.6060    2.0193   -2.5652 H   0  0  0  0  0  0  0  0  0  0  0  0
  1  2  1  0
  2  3  2  0
  2  4  1  0
  4  5  1  0
  5  6  1  0
  6  7  1  0
  7  8  1  0
  8  9  1  0
  9 10  1  0
 10 11  2  0
 11 12  1  0
 12 13  2  0
 13 14  1  0
 13 15  1  0
 15 16  1  0
 16 17  1  0
 17 18  1  0
 18 19  1  0
 19 20  1  0
 19 21  2  0
 18 22  1  0
 22 23  1  0
 23 24  2  0
 23 25  1  0
 25 26  1  0
 25 27  1  0
 27 28  1  0
 28 29  2  0
 28 30  1  0
 30 31  1  0
 30 32  1  0
 32 33  1  0
 33 34  2  0
 33 35  1  0
 35 36  1  0
 35 37  1  0
 37 38  1  0
 38 39  2  0
 38 40  1  0
 40 41  1  0
 40 42  1  0
 42 43  1  0
 43 44  2  0
 43 45  1  0
 45 46  1  0
 45 47  1  0
 47 48  1  0
 48 49  2  0
 48 50  1  0
 50 51  1  0
 50 52  1  0
 52 53  1  0
 53 54  2  0
 53 55  1  0
 55 56  1  0
 55 57  1  0
 57 58  1  0
 58 59  2  0
 58 60  1  0
 60 61  1  0
 60 62  1  0
 62 63  1  0
 63 64  2  0
 63 65  1  0
 65 66  1  0
 65 67  1  0
 67 68  1  0
 68 69  2  0
 68 70  1  0
 70 71  1  0
 71 72  1  0
 72 73  1  0
 70 74  1  0
 74 75  1  0
 75 76  2  0
 75 77  1  0
 77 78  1  0
 77 79  1  0
 79 80  1  0
 80 81  2  0
 80 82  1  0
 82 83  1  0
 82 84  1  0
 84 85  1  0
 85 86  2  0
 85 87  1  0
 87 88  1  0
 87 89  1  0
 89 90  1  0
 90 91  2  0
 90  5  1  0
 14  9  2  0
 73 11  1  0
  1 92  1  0
  1 93  1  0
  1 94  1  0
  4 95  1  0
  5 96  1  1
  6 97  1  0
  6 98  1  0
  8 99  1  0
  8100  1  0
 10101  1  0
 12102  1  0
 14103  1  0
 15104  1  0
 15105  1  0
 17106  1  0
 17107  1  0
 18108  1  6
 20109  1  0
 20110  1  0
 22111  1  0
 25112  1  6
 26113  1  0
 26114  1  0
 26115  1  0
 27116  1  0
 30117  1  6
 31118  1  0
 31119  1  0
 31120  1  0
 32121  1  0
 35122  1  6
 36123  1  0
 36124  1  0
 36125  1  0
 37126  1  0
 40127  1  1
 41128  1  0
 41129  1  0
 41130  1  0
 42131  1  0
 45132  1  6
 46133  1  0
 46134  1  0
 46135  1  0
 47136  1  0
 50137  1  6
 51138  1  0
 51139  1  0
 51140  1  0
 52141  1  0
 55142  1  6
 56143  1  0
 56144  1  0
 56145  1  0
 57146  1  0
 60147  1  6
 61148  1  0
 61149  1  0
 61150  1  0
 62151  1  0
 65152  1  6
 66153  1  0
 66154  1  0
 66155  1  0
 67156  1  0
 70157  1  1
 71158  1  0
 71159  1  0
 73160  1  0
 73161  1  0
 74162  1  0
 77163  1  1
 78164  1  0
 78165  1  0
 78166  1  0
 79167  1  0
 82168  1  6
 83169  1  0
 83170  1  0
 83171  1  0
 84172  1  0
 87173  1  1
 88174  1  0
 88175  1  0
 88176  1  0
 89177  1  0
M  END
