
     RDKit          3D

177179  0  0  0  0  0  0  0  0999 V2000
   12.4475    4.5234    0.6320 C   0  0  0  0  0  0  0  0  0  0  0  0
   11.3580    3.7469   -0.0328 C   0  0  0  0  0  0  0  0  0  0  0  0
   11.3603    3.6278   -1.2871 O   0  0  0  0  0  0  0  0  0  0  0  0
   10.3388    3.1216    0.7669 N   0  0  0  0  0  0  0  0  0  0  0  0
    9.1370    2.4709    0.2310 C   0  0  1  0  0  0  0  0  0  0  0  0
    8.2928    3.4582   -0.6002 C   0  0  0  0  0  0  0  0  0  0  0  0
    6.6624    2.7780   -1.0939 S   0  0  0  0  0  0  0  0  0  0  0  0
    5.8677    2.8933    0.5547 C   0  0  0  0  0  0  0  0  0  0  0  0
    4.3801    2.7211    0.4403 C   0  0  0  0  0  0  0  0  0  0  0  0
    3.5752    3.7704   -0.0392 C   0  0  0  0  0  0  0  0  0  0  0  0
    2.1794    3.6368   -0.0706 C   0  0  0  0  0  0  0  0  0  0  0  0
    1.5895    2.4452    0.3817 C   0  0  0  0  0  0  0  0  0  0  0  0
    2.3840    1.3851    0.8403 C   0  0  0  0  0  0  0  0  0  0  0  0
    3.7766    1.5252    0.8592 C   0  0  0  0  0  0  0  0  0  0  0  0
    1.7589    0.1013    1.2979 C   0  0  0  0  0  0  0  0  0  0  0  0
    1.9956   -1.1756    0.0099 S   0  0  0  0  0  0  0  0  0  0  0  0
    2.3423   -2.5449    1.1742 C   0  0  0  0  0  0  0  0  0  0  0  0
    2.6714   -3.8462    0.4298 C   0  0  1  0  0  0  0  0  0  0  0  0
    3.8632   -3.6546   -0.4135 N   0  0  0  0  0  0  0  0  0  0  0  0
    5.0841   -4.3979   -0.3054 C   0  0  0  0  0  0  0  0  0  0  0  0
    5.1215   -5.5818   -0.7401 O   0  0  0  0  0  0  0  0  0  0  0  0
    6.3549   -3.7375    0.1784 C   0  0  1  0  0  0  0  0  0  0  0  0
    6.0708   -2.6144    1.1821 C   0  0  0  0  0  0  0  0  0  0  0  0
    7.2188   -4.7427    0.7990 N   0  0  0  0  0  0  0  0  0  0  0  0
    8.6329   -4.5523    0.8981 C   0  0  0  0  0  0  0  0  0  0  0  0
    9.1313   -4.2822    2.0219 O   0  0  0  0  0  0  0  0  0  0  0  0
    9.5646   -4.7749   -0.2714 C   0  0  1  0  0  0  0  0  0  0  0  0
    8.8835   -5.2136   -1.5748 C   0  0  0  0  0  0  0  0  0  0  0  0
   10.4141   -3.5944   -0.4700 N   0  0  0  0  0  0  0  0  0  0  0  0
    9.8762   -2.2889   -0.7277 C   0  0  0  0  0  0  0  0  0  0  0  0
    9.1939   -2.0884   -1.7710 O   0  0  0  0  0  0  0  0  0  0  0  0
   10.2035   -1.1522    0.2032 C   0  0  1  0  0  0  0  0  0  0  0  0
   11.6529   -0.6847    0.0061 C   0  0  0  0  0  0  0  0  0  0  0  0
    9.2235   -0.0642    0.0698 N   0  0  0  0  0  0  0  0  0  0  0  0
    9.4981    1.2144   -0.5202 C   0  0  0  0  0  0  0  0  0  0  0  0
   10.0544    1.2728   -1.6458 O   0  0  0  0  0  0  0  0  0  0  0  0
    2.8235   -4.9641    1.4402 C   0  0  0  0  0  0  0  0  0  0  0  0
    3.7846   -4.9405    2.2604 O   0  0  0  0  0  0  0  0  0  0  0  0
    1.7844   -5.9369    1.6183 N   0  0  0  0  0  0  0  0  0  0  0  0
    1.5737   -7.0733    0.7220 C   0  0  2  0  0  0  0  0  0  0  0  0
    2.8206   -7.9719    0.6812 C   0  0  0  0  0  0  0  0  0  0  0  0
    1.1533   -6.6019   -0.6524 C   0  0  0  0  0  0  0  0  0  0  0  0
    1.9993   -6.5752   -1.5846 O   0  0  0  0  0  0  0  0  0  0  0  0
   -0.1841   -6.1353   -0.9158 N   0  0  0  0  0  0  0  0  0  0  0  0
   -1.3110   -6.2646    0.0171 C   0  0  2  0  0  0  0  0  0  0  0  0
   -1.9674   -7.6353   -0.1685 C   0  0  0  0  0  0  0  0  0  0  0  0
   -2.3289   -5.1705   -0.2047 C   0  0  0  0  0  0  0  0  0  0  0  0
   -2.1240   -4.2593   -1.0555 O   0  0  0  0  0  0  0  0  0  0  0  0
   -3.5265   -5.1364    0.5840 N   0  0  0  0  0  0  0  0  0  0  0  0
   -4.8745   -5.3556    0.0366 C   0  0  2  0  0  0  0  0  0  0  0  0
   -4.9433   -5.1677   -1.4870 C   0  0  0  0  0  0  0  0  0  0  0  0
   -5.8474   -4.4272    0.7129 C   0  0  0  0  0  0  0  0  0  0  0  0
   -5.6348   -3.1863    0.7004 O   0  0  0  0  0  0  0  0  0  0  0  0
   -6.9699   -4.9371    1.4442 N   0  0  0  0  0  0  0  0  0  0  0  0
   -8.1757   -5.4967    0.8178 C   0  0  2  0  0  0  0  0  0  0  0  0
   -7.9800   -6.9843    0.5021 C   0  0  0  0  0  0  0  0  0  0  0  0
   -8.6004   -4.6934   -0.4010 C   0  0  0  0  0  0  0  0  0  0  0  0
   -8.5631   -5.2262   -1.5437 O   0  0  0  0  0  0  0  0  0  0  0  0
   -9.0796   -3.3394   -0.3007 N   0  0  0  0  0  0  0  0  0  0  0  0
   -9.3100   -2.6186    0.9567 C   0  0  2  0  0  0  0  0  0  0  0  0
  -10.7444   -2.8971    1.4309 C   0  0  0  0  0  0  0  0  0  0  0  0
   -9.0933   -1.1287    0.7769 C   0  0  0  0  0  0  0  0  0  0  0  0
   -9.5081   -0.3310    1.6629 O   0  0  0  0  0  0  0  0  0  0  0  0
   -8.4260   -0.6099   -0.3850 N   0  0  0  0  0  0  0  0  0  0  0  0
   -8.8479    0.6439   -1.0183 C   0  0  2  0  0  0  0  0  0  0  0  0
  -10.2921    0.4964   -1.5221 C   0  0  0  0  0  0  0  0  0  0  0  0
   -7.9389    0.9711   -2.1871 C   0  0  0  0  0  0  0  0  0  0  0  0
   -7.7864    0.1011   -3.0874 O   0  0  0  0  0  0  0  0  0  0  0  0
   -7.2420    2.2277   -2.3313 N   0  0  0  0  0  0  0  0  0  0  0  0
   -7.4584    3.4477   -1.5277 C   0  0  2  0  0  0  0  0  0  0  0  0
   -8.8414    4.0301   -1.8475 C   0  0  0  0  0  0  0  0  0  0  0  0
   -6.3910    4.4958   -1.8186 C   0  0  0  0  0  0  0  0  0  0  0  0
   -5.3386    4.1817   -2.4359 O   0  0  0  0  0  0  0  0  0  0  0  0
   -6.5773    5.8632   -1.4303 N   0  0  0  0  0  0  0  0  0  0  0  0
   -6.6028    6.2741   -0.0266 C   0  0  2  0  0  0  0  0  0  0  0  0
   -7.6838    7.3441    0.1709 C   0  0  0  0  0  0  0  0  0  0  0  0
   -5.2201    6.7515    0.3604 C   0  0  0  0  0  0  0  0  0  0  0  0
   -4.3068    5.8937    0.5048 O   0  0  0  0  0  0  0  0  0  0  0  0
   -4.8973    8.1511    0.4551 N   0  0  0  0  0  0  0  0  0  0  0  0
   -3.5545    8.6629    0.1518 C   0  0  2  0  0  0  0  0  0  0  0  0
   -3.5235   10.1867    0.3045 C   0  0  0  0  0  0  0  0  0  0  0  0
   -3.1712    8.2856   -1.2602 C   0  0  0  0  0  0  0  0  0  0  0  0
   -3.9418    8.6294   -2.1988 O   0  0  0  0  0  0  0  0  0  0  0  0
   -1.9885    7.5266   -1.5881 N   0  0  0  0  0  0  0  0  0  0  0  0
   -0.7766    7.3525   -0.7718 C   0  0  1  0  0  0  0  0  0  0  0  0
   -0.3376    8.6579   -0.1507 C   0  0  0  0  0  0  0  0  0  0  0  0
   -0.0088    9.7623   -0.9918 N   0  0  0  0  0  0  0  0  0  0  0  0
   -0.2260    8.7762    1.1006 O   0  0  0  0  0  0  0  0  0  0  0  0
   -0.9374    6.1865    0.2279 C   0  0  0  0  0  0  0  0  0  0  0  0
    0.6710    5.6640    0.9418 S   0  0  0  0  0  0  0  0  0  0  0  0
    1.3083    4.7740   -0.5192 C   0  0  0  0  0  0  0  0  0  0  0  0
   12.0020    5.3833    1.1762 H   0  0  0  0  0  0  0  0  0  0  0  0
   12.9907    3.8776    1.3568 H   0  0  0  0  0  0  0  0  0  0  0  0
   13.1635    4.9138   -0.1231 H   0  0  0  0  0  0  0  0  0  0  0  0
   10.4324    3.1816    1.8037 H   0  0  0  0  0  0  0  0  0  0  0  0
    8.5272    2.1639    1.1082 H   0  0  0  0  0  0  0  0  0  0  0  0
    8.1425    4.3960   -0.0216 H   0  0  0  0  0  0  0  0  0  0  0  0
    8.8349    3.7341   -1.5299 H   0  0  0  0  0  0  0  0  0  0  0  0
    6.2933    2.1013    1.2035 H   0  0  0  0  0  0  0  0  0  0  0  0
    6.0905    3.8743    1.0305 H   0  0  0  0  0  0  0  0  0  0  0  0
    4.0394    4.6961   -0.3599 H   0  0  0  0  0  0  0  0  0  0  0  0
    0.5082    2.3523    0.3824 H   0  0  0  0  0  0  0  0  0  0  0  0
    4.3915    0.7074    1.2189 H   0  0  0  0  0  0  0  0  0  0  0  0
    2.2113   -0.1915    2.2654 H   0  0  0  0  0  0  0  0  0  0  0  0
    0.6693    0.2303    1.4666 H   0  0  0  0  0  0  0  0  0  0  0  0
    3.1963   -2.2612    1.8282 H   0  0  0  0  0  0  0  0  0  0  0  0
    1.4460   -2.6990    1.8092 H   0  0  0  0  0  0  0  0  0  0  0  0
    1.8097   -4.0745   -0.2334 H   0  0  0  0  0  0  0  0  0  0  0  0
    3.7982   -2.9740   -1.2135 H   0  0  0  0  0  0  0  0  0  0  0  0
    6.8589   -3.2804   -0.6957 H   0  0  0  0  0  0  0  0  0  0  0  0
    5.5353   -3.0116    2.0708 H   0  0  0  0  0  0  0  0  0  0  0  0
    5.4597   -1.8109    0.7119 H   0  0  0  0  0  0  0  0  0  0  0  0
    7.0264   -2.1645    1.5223 H   0  0  0  0  0  0  0  0  0  0  0  0
    6.7836   -5.3421    1.5377 H   0  0  0  0  0  0  0  0  0  0  0  0
   10.2285   -5.6253    0.0247 H   0  0  0  0  0  0  0  0  0  0  0  0
    8.2356   -4.4265   -2.0018 H   0  0  0  0  0  0  0  0  0  0  0  0
    8.2679   -6.1195   -1.3934 H   0  0  0  0  0  0  0  0  0  0  0  0
    9.6627   -5.4717   -2.3252 H   0  0  0  0  0  0  0  0  0  0  0  0
   11.3689   -3.6409   -0.0467 H   0  0  0  0  0  0  0  0  0  0  0  0
   10.1261   -1.5419    1.2428 H   0  0  0  0  0  0  0  0  0  0  0  0
   12.3561   -1.4836    0.3256 H   0  0  0  0  0  0  0  0  0  0  0  0
   11.8613   -0.4442   -1.0563 H   0  0  0  0  0  0  0  0  0  0  0  0
   11.8552    0.2089    0.6347 H   0  0  0  0  0  0  0  0  0  0  0  0
    8.2541   -0.2200    0.4467 H   0  0  0  0  0  0  0  0  0  0  0  0
    1.3049   -5.9567    2.5460 H   0  0  0  0  0  0  0  0  0  0  0  0
    0.7665   -7.7129    1.1399 H   0  0  0  0  0  0  0  0  0  0  0  0
    3.6967   -7.4248    0.2838 H   0  0  0  0  0  0  0  0  0  0  0  0
    3.0603   -8.3247    1.7076 H   0  0  0  0  0  0  0  0  0  0  0  0
    2.6314   -8.8578    0.0397 H   0  0  0  0  0  0  0  0  0  0  0  0
   -0.3951   -5.8708   -1.9052 H   0  0  0  0  0  0  0  0  0  0  0  0
   -0.9563   -6.1711    1.0651 H   0  0  0  0  0  0  0  0  0  0  0  0
   -1.2229   -8.4435   -0.0076 H   0  0  0  0  0  0  0  0  0  0  0  0
   -2.3753   -7.7297   -1.1984 H   0  0  0  0  0  0  0  0  0  0  0  0
   -2.7916   -7.7766    0.5634 H   0  0  0  0  0  0  0  0  0  0  0  0
   -3.4175   -5.3109    1.6128 H   0  0  0  0  0  0  0  0  0  0  0  0
   -5.1602   -6.4062    0.2647 H   0  0  0  0  0  0  0  0  0  0  0  0
   -4.6660   -4.1316   -1.7692 H   0  0  0  0  0  0  0  0  0  0  0  0
   -4.2672   -5.8889   -1.9936 H   0  0  0  0  0  0  0  0  0  0  0  0
   -5.9714   -5.3684   -1.8500 H   0  0  0  0  0  0  0  0  0  0  0  0
   -7.0143   -4.7256    2.4647 H   0  0  0  0  0  0  0  0  0  0  0  0
   -9.0053   -5.4468    1.5541 H   0  0  0  0  0  0  0  0  0  0  0  0
   -7.6386   -7.5245    1.4115 H   0  0  0  0  0  0  0  0  0  0  0  0
   -7.2398   -7.1347   -0.3091 H   0  0  0  0  0  0  0  0  0  0  0  0
   -8.9446   -7.4326    0.1781 H   0  0  0  0  0  0  0  0  0  0  0  0
   -9.4607   -2.9204   -1.1774 H   0  0  0  0  0  0  0  0  0  0  0  0
   -8.6075   -2.9668    1.7437 H   0  0  0  0  0  0  0  0  0  0  0  0
  -11.4765   -2.4796    0.7057 H   0  0  0  0  0  0  0  0  0  0  0  0
  -10.9141   -3.9926    1.5154 H   0  0  0  0  0  0  0  0  0  0  0  0
  -10.9140   -2.4404    2.4256 H   0  0  0  0  0  0  0  0  0  0  0  0
   -7.6987   -1.2084   -0.8402 H   0  0  0  0  0  0  0  0  0  0  0  0
   -8.8140    1.4552   -0.2640 H   0  0  0  0  0  0  0  0  0  0  0  0
  -10.3986   -0.4337   -2.1225 H   0  0  0  0  0  0  0  0  0  0  0  0
  -10.9896    0.4442   -0.6610 H   0  0  0  0  0  0  0  0  0  0  0  0
  -10.5885    1.3542   -2.1576 H   0  0  0  0  0  0  0  0  0  0  0  0
   -6.5951    2.2792   -3.1469 H   0  0  0  0  0  0  0  0  0  0  0  0
   -7.3951    3.1989   -0.4486 H   0  0  0  0  0  0  0  0  0  0  0  0
   -8.9152    4.2839   -2.9243 H   0  0  0  0  0  0  0  0  0  0  0  0
   -9.6436    3.3112   -1.5913 H   0  0  0  0  0  0  0  0  0  0  0  0
   -9.0322    4.9385   -1.2446 H   0  0  0  0  0  0  0  0  0  0  0  0
   -6.3413    6.5907   -2.1425 H   0  0  0  0  0  0  0  0  0  0  0  0
   -6.8645    5.4106    0.6223 H   0  0  0  0  0  0  0  0  0  0  0  0
   -7.6977    7.6843    1.2291 H   0  0  0  0  0  0  0  0  0  0  0  0
   -8.6808    6.9246   -0.0613 H   0  0  0  0  0  0  0  0  0  0  0  0
   -7.5105    8.2145   -0.4980 H   0  0  0  0  0  0  0  0  0  0  0  0
   -5.6186    8.8142    0.8310 H   0  0  0  0  0  0  0  0  0  0  0  0
   -2.8438    8.2447    0.8862 H   0  0  0  0  0  0  0  0  0  0  0  0
   -2.5353   10.5915   -0.0011 H   0  0  0  0  0  0  0  0  0  0  0  0
   -4.3092   10.6677   -0.3223 H   0  0  0  0  0  0  0  0  0  0  0  0
   -3.7023   10.4640    1.3681 H   0  0  0  0  0  0  0  0  0  0  0  0
   -1.9315    7.1731   -2.5682 H   0  0  0  0  0  0  0  0  0  0  0  0
    0.0382    7.0600   -1.4661 H   0  0  0  0  0  0  0  0  0  0  0  0
   -0.1039    9.6830   -2.0340 H   0  0  0  0  0  0  0  0  0  0  0  0
    0.3748   10.6409   -0.5797 H   0  0  0  0  0  0  0  0  0  0  0  0
   -1.5967    6.4724    1.0695 H   0  0  0  0  0  0  0  0  0  0  0  0
   -1.4176    5.3200   -0.2749 H   0  0  0  0  0  0  0  0  0  0  0  0
    0.4781    4.3669   -1.1386 H   0  0  0  0  0  0  0  0  0  0  0  0
    1.8899    5.4802   -1.1538 H   0  0  0  0  0  0  0  0  0  0  0  0
  1  2  1  0
  2  3  2  0
  2  4  1  0
  4  5  1  0
  5  6  1  0
  6  7  1  0
  7  8  1  0
  8  9  1  0
  9 10  1  0
 10 11  2  0
 11 12  1  0
 12 13  2  0
 13 14  1  0
 13 15  1  0
 15 16  1  0
 16 17  1  0
 17 18  1  0
 18 19  1  0
 19 20  1  0
 20 21  2  0
 20 22  1  0
 22 23  1  0
 22 24  1  0
 24 25  1  0
 25 26  2  0
 25 27  1  0
 27 28  1  0
 27 29  1  0
 29 30  1  0
 30 31  2  0
 30 32  1  0
 32 33  1  0
 32 34  1  0
 34 35  1  0
 35 36  2  0
 18 37  1  0
 37 38  2  0
 37 39  1  0
 39 40  1  0
 40 41  1  0
 40 42  1  0
 42 43  2  0
 42 44  1  0
 44 45  1  0
 45 46  1  0
 45 47  1  0
 47 48  2  0
 47 49  1  0
 49 50  1  0
 50 51  1  0
 50 52  1  0
 52 53  2  0
 52 54  1  0
 54 55  1  0
 55 56  1  0
 55 57  1  0
 57 58  2  0
 57 59  1  0
 59 60  1  0
 60 61  1  0
 60 62  1  0
 62 63  2  0
 62 64  1  0
 64 65  1  0
 65 66  1  0
 65 67  1  0
 67 68  2  0
 67 69  1  0
 69 70  1  0
 70 71  1  0
 70 72  1  0
 72 73  2  0
 72 74  1  0
 74 75  1  0
 75 76  1  0
 75 77  1  0
 77 78  2  0
 77 79  1  0
 79 80  1  0
 80 81  1  0
 80 82  1  0
 82 83  2  0
 82 84  1  0
 84 85  1  0
 85 86  1  0
 86 87  1  0
 86 88  2  0
 85 89  1  0
 89 90  1  0
 90 91  1  0
 35  5  1  0
 14  9  2  0
 91 11  1  0
  1 92  1  0
  1 93  1  0
  1 94  1  0
  4 95  1  0
  5 96  1  1
  6 97  1  0
  6 98  1  0
  8 99  1  0
  8100  1  0
 10101  1  0
 12102  1  0
 14103  1  0
 15104  1  0
 15105  1  0
 17106  1  0
 17107  1  0
 18108  1  6
 19109  1  0
 22110  1  6
 23111  1  0
 23112  1  0
 23113  1  0
 24114  1  0
 27115  1  1
 28116  1  0
 28117  1  0
 28118  1  0
 29119  1  0
 32120  1  1
 33121  1  0
 33122  1  0
 33123  1  0
 34124  1  0
 39125  1  0
 40126  1  1
 41127  1  0
 41128  1  0
 41129  1  0
 44130  1  0
 45131  1  1
 46132  1  0
 46133  1  0
 46134  1  0
 49135  1  0
 50136  1  6
 51137  1  0
 51138  1  0
 51139  1  0
 54140  1  0
 55141  1  1
 56142  1  0
 56143  1  0
 56144  1  0
 59145  1  0
 60146  1  1
 61147  1  0
 61148  1  0
 61149  1  0
 64150  1  0
 65151  1  1
 66152  1  0
 66153  1  0
 66154  1  0
 69155  1  0
 70156  1  1
 71157  1  0
 71158  1  0
 71159  1  0
 74160  1  0
 75161  1  1
 76162  1  0
 76163  1  0
 76164  1  0
 79165  1  0
 80166  1  1
 81167  1  0
 81168  1  0
 81169  1  0
 84170  1  0
 85171  1  6
 87172  1  0
 87173  1  0
 89174  1  0
 89175  1  0
 91176  1  0
 91177  1  0
M  END
