
     RDKit          3D

187189  0  0  0  0  0  0  0  0999 V2000
   10.4469    4.4941   -1.5471 C   0  0  0  0  0  0  0  0  0  0  0  0
   10.0889    4.4975   -0.0975 C   0  0  0  0  0  0  0  0  0  0  0  0
   10.5601    5.3881    0.6657 O   0  0  0  0  0  0  0  0  0  0  0  0
    9.2606    3.4547    0.4232 N   0  0  0  0  0  0  0  0  0  0  0  0
    9.3049    3.0137    1.8183 C   0  0  1  0  0  0  0  0  0  0  0  0
    7.8741    2.8557    2.3755 C   0  0  0  0  0  0  0  0  0  0  0  0
    6.8913    1.6141    1.4488 S   0  0  0  0  0  0  0  0  0  0  0  0
    6.0384    2.7719    0.3113 C   0  0  0  0  0  0  0  0  0  0  0  0
    4.5606    2.5642    0.4484 C   0  0  0  0  0  0  0  0  0  0  0  0
    3.9505    1.4557   -0.1538 C   0  0  0  0  0  0  0  0  0  0  0  0
    2.6082    1.1277    0.1328 C   0  0  0  0  0  0  0  0  0  0  0  0
    1.8602    1.9962    0.9492 C   0  0  0  0  0  0  0  0  0  0  0  0
    2.4464    3.1485    1.5005 C   0  0  0  0  0  0  0  0  0  0  0  0
    3.8003    3.4212    1.2527 C   0  0  0  0  0  0  0  0  0  0  0  0
    1.6234    4.1032    2.3228 C   0  0  0  0  0  0  0  0  0  0  0  0
    1.2817    5.6497    1.4053 S   0  0  0  0  0  0  0  0  0  0  0  0
    0.1344    4.9171    0.1844 C   0  0  0  0  0  0  0  0  0  0  0  0
   -0.4178    5.9950   -0.7573 C   0  0  1  0  0  0  0  0  0  0  0  0
    0.6938    6.6374   -1.5523 C   0  0  0  0  0  0  0  0  0  0  0  0
    1.4478    5.8859   -2.5042 N   0  0  0  0  0  0  0  0  0  0  0  0
    0.9542    7.8590   -1.3803 O   0  0  0  0  0  0  0  0  0  0  0  0
   -1.3969    5.4033   -1.6749 N   0  0  0  0  0  0  0  0  0  0  0  0
   -2.4499    6.1600   -2.2924 C   0  0  0  0  0  0  0  0  0  0  0  0
   -2.6854    5.9751   -3.5198 O   0  0  0  0  0  0  0  0  0  0  0  0
   -3.2433    7.1870   -1.5219 C   0  0  1  0  0  0  0  0  0  0  0  0
   -2.6738    8.5870   -1.7625 C   0  0  0  0  0  0  0  0  0  0  0  0
   -4.6595    7.1616   -1.9187 N   0  0  0  0  0  0  0  0  0  0  0  0
   -5.7187    7.7522   -1.1484 C   0  0  0  0  0  0  0  0  0  0  0  0
   -6.8164    7.9877   -1.7254 O   0  0  0  0  0  0  0  0  0  0  0  0
   -5.6024    7.9636    0.3489 C   0  0  1  0  0  0  0  0  0  0  0  0
   -6.5824    9.0249    0.8691 C   0  0  0  0  0  0  0  0  0  0  0  0
   -5.7867    6.6907    1.0490 N   0  0  0  0  0  0  0  0  0  0  0  0
   -6.9138    5.8305    0.8379 C   0  0  0  0  0  0  0  0  0  0  0  0
   -8.0712    6.3194    0.8029 O   0  0  0  0  0  0  0  0  0  0  0  0
   -6.7409    4.3472    0.6061 C   0  0  1  0  0  0  0  0  0  0  0  0
   -5.2752    3.9211    0.5153 C   0  0  0  0  0  0  0  0  0  0  0  0
   -7.4110    3.5835    1.6638 N   0  0  0  0  0  0  0  0  0  0  0  0
   -8.1057    2.3475    1.4370 C   0  0  0  0  0  0  0  0  0  0  0  0
   -7.8506    1.3734    2.1937 O   0  0  0  0  0  0  0  0  0  0  0  0
   -9.1806    2.1739    0.3852 C   0  0  1  0  0  0  0  0  0  0  0  0
  -10.0717    3.4143    0.2506 C   0  0  0  0  0  0  0  0  0  0  0  0
   -8.6032    1.8120   -0.9157 N   0  0  0  0  0  0  0  0  0  0  0  0
   -8.8956    0.5951   -1.6146 C   0  0  0  0  0  0  0  0  0  0  0  0
   -8.9198    0.6226   -2.8765 O   0  0  0  0  0  0  0  0  0  0  0  0
   -9.1909   -0.7098   -0.8938 C   0  0  1  0  0  0  0  0  0  0  0  0
  -10.7043   -0.9343   -0.8800 C   0  0  0  0  0  0  0  0  0  0  0  0
   -8.5098   -1.8310   -1.5690 N   0  0  0  0  0  0  0  0  0  0  0  0
   -8.5680   -3.2027   -1.1459 C   0  0  0  0  0  0  0  0  0  0  0  0
   -8.4349   -4.1028   -2.0179 O   0  0  0  0  0  0  0  0  0  0  0  0
   -8.6557   -3.6038    0.3044 C   0  0  1  0  0  0  0  0  0  0  0  0
   -9.8551   -4.5442    0.5135 C   0  0  0  0  0  0  0  0  0  0  0  0
   -7.3732   -4.2152    0.6966 N   0  0  0  0  0  0  0  0  0  0  0  0
   -7.2397   -5.4525    1.4138 C   0  0  0  0  0  0  0  0  0  0  0  0
   -7.8425   -5.6011    2.5160 O   0  0  0  0  0  0  0  0  0  0  0  0
   -6.3094   -6.5322    0.9114 C   0  0  1  0  0  0  0  0  0  0  0  0
   -6.8823   -7.9215    1.2037 C   0  0  0  0  0  0  0  0  0  0  0  0
   -6.1167   -6.3908   -0.5394 N   0  0  0  0  0  0  0  0  0  0  0  0
   -4.9030   -5.9978   -1.2157 C   0  0  0  0  0  0  0  0  0  0  0  0
   -4.9790   -5.6647   -2.4229 O   0  0  0  0  0  0  0  0  0  0  0  0
   -3.5478   -5.9017   -0.5342 C   0  0  1  0  0  0  0  0  0  0  0  0
   -3.4802   -4.6366    0.3371 C   0  0  0  0  0  0  0  0  0  0  0  0
   -3.2385   -7.1280    0.2225 N   0  0  0  0  0  0  0  0  0  0  0  0
   -2.0262   -7.3803    0.9538 C   0  0  0  0  0  0  0  0  0  0  0  0
   -2.0274   -8.2990    1.8116 O   0  0  0  0  0  0  0  0  0  0  0  0
   -0.7661   -6.5546    0.7714 C   0  0  1  0  0  0  0  0  0  0  0  0
   -0.5788   -5.6511    1.9971 C   0  0  0  0  0  0  0  0  0  0  0  0
    0.3963   -7.4351    0.5905 N   0  0  0  0  0  0  0  0  0  0  0  0
    1.6326   -7.1091   -0.0831 C   0  0  0  0  0  0  0  0  0  0  0  0
    2.3716   -8.0660   -0.4551 O   0  0  0  0  0  0  0  0  0  0  0  0
    2.1605   -5.7032   -0.2878 C   0  0  1  0  0  0  0  0  0  0  0  0
    1.2702   -4.8521   -1.2112 C   0  0  0  0  0  0  0  0  0  0  0  0
    2.4070   -5.0398    0.9963 N   0  0  0  0  0  0  0  0  0  0  0  0
    2.8948   -3.6999    1.1157 C   0  0  0  0  0  0  0  0  0  0  0  0
    2.3853   -2.9442    1.9838 O   0  0  0  0  0  0  0  0  0  0  0  0
    4.1115   -3.2455    0.3420 C   0  0  1  0  0  0  0  0  0  0  0  0
    4.1055   -1.7376    0.0780 C   0  0  0  0  0  0  0  0  0  0  0  0
    2.9841   -1.3052   -1.2991 S   0  0  0  0  0  0  0  0  0  0  0  0
    1.9200   -0.1137   -0.4002 C   0  0  0  0  0  0  0  0  0  0  0  0
    5.3092   -3.5894    1.1151 N   0  0  0  0  0  0  0  0  0  0  0  0
    6.2884   -4.5611    0.7051 C   0  0  0  0  0  0  0  0  0  0  0  0
    6.7389   -5.3685    1.5649 O   0  0  0  0  0  0  0  0  0  0  0  0
    6.8383   -4.6368   -0.7021 C   0  0  1  0  0  0  0  0  0  0  0  0
    6.1699   -5.7471   -1.5115 C   0  0  0  0  0  0  0  0  0  0  0  0
    6.7415   -3.3457   -1.4000 N   0  0  0  0  0  0  0  0  0  0  0  0
    7.8202   -2.4100   -1.5353 C   0  0  0  0  0  0  0  0  0  0  0  0
    7.7379   -1.4998   -2.4137 O   0  0  0  0  0  0  0  0  0  0  0  0
    9.0890   -2.5260   -0.7153 C   0  0  1  0  0  0  0  0  0  0  0  0
   10.1488   -3.2907   -1.5191 C   0  0  0  0  0  0  0  0  0  0  0  0
    9.6170   -1.2010   -0.3711 N   0  0  0  0  0  0  0  0  0  0  0  0
   10.4538   -1.0207    0.7775 C   0  0  0  0  0  0  0  0  0  0  0  0
   10.2784   -1.7384    1.8036 O   0  0  0  0  0  0  0  0  0  0  0  0
   11.5721   -0.0051    0.7818 C   0  0  1  0  0  0  0  0  0  0  0  0
   12.4101   -0.1254   -0.5017 C   0  0  0  0  0  0  0  0  0  0  0  0
   11.0424    1.3562    0.9248 N   0  0  0  0  0  0  0  0  0  0  0  0
   10.1008    1.7337    1.9394 C   0  0  0  0  0  0  0  0  0  0  0  0
    9.9788    1.0070    2.9631 O   0  0  0  0  0  0  0  0  0  0  0  0
   10.9652    3.5376   -1.7801 H   0  0  0  0  0  0  0  0  0  0  0  0
    9.5227    4.5633   -2.1585 H   0  0  0  0  0  0  0  0  0  0  0  0
   11.1223    5.3458   -1.7854 H   0  0  0  0  0  0  0  0  0  0  0  0
    8.8027    2.8280   -0.2728 H   0  0  0  0  0  0  0  0  0  0  0  0
    9.8120    3.7879    2.4436 H   0  0  0  0  0  0  0  0  0  0  0  0
    7.9334    2.5224    3.4281 H   0  0  0  0  0  0  0  0  0  0  0  0
    7.3645    3.8433    2.4112 H   0  0  0  0  0  0  0  0  0  0  0  0
    6.3055    3.8331    0.4825 H   0  0  0  0  0  0  0  0  0  0  0  0
    6.3487    2.5294   -0.7283 H   0  0  0  0  0  0  0  0  0  0  0  0
    4.5387    0.8475   -0.8215 H   0  0  0  0  0  0  0  0  0  0  0  0
    0.8186    1.7752    1.1499 H   0  0  0  0  0  0  0  0  0  0  0  0
    4.2611    4.3014    1.6901 H   0  0  0  0  0  0  0  0  0  0  0  0
    2.1976    4.3540    3.2413 H   0  0  0  0  0  0  0  0  0  0  0  0
    0.6680    3.6339    2.6459 H   0  0  0  0  0  0  0  0  0  0  0  0
    0.6533    4.1358   -0.4085 H   0  0  0  0  0  0  0  0  0  0  0  0
   -0.7109    4.4391    0.7252 H   0  0  0  0  0  0  0  0  0  0  0  0
   -0.9085    6.7641   -0.1246 H   0  0  0  0  0  0  0  0  0  0  0  0
    2.2214    6.3345   -3.0429 H   0  0  0  0  0  0  0  0  0  0  0  0
    1.2596    4.8721   -2.6626 H   0  0  0  0  0  0  0  0  0  0  0  0
   -1.1523    4.4894   -2.1133 H   0  0  0  0  0  0  0  0  0  0  0  0
   -3.1589    6.9373   -0.4405 H   0  0  0  0  0  0  0  0  0  0  0  0
   -3.2333    9.3402   -1.1579 H   0  0  0  0  0  0  0  0  0  0  0  0
   -1.6060    8.6388   -1.4631 H   0  0  0  0  0  0  0  0  0  0  0  0
   -2.7662    8.8721   -2.8369 H   0  0  0  0  0  0  0  0  0  0  0  0
   -4.9085    6.8371   -2.8819 H   0  0  0  0  0  0  0  0  0  0  0  0
   -4.5932    8.3490    0.5763 H   0  0  0  0  0  0  0  0  0  0  0  0
   -6.4982    9.1006    1.9748 H   0  0  0  0  0  0  0  0  0  0  0  0
   -6.3314   10.0151    0.4376 H   0  0  0  0  0  0  0  0  0  0  0  0
   -7.6362    8.7847    0.6086 H   0  0  0  0  0  0  0  0  0  0  0  0
   -5.1369    6.4698    1.8484 H   0  0  0  0  0  0  0  0  0  0  0  0
   -7.1986    4.1320   -0.3794 H   0  0  0  0  0  0  0  0  0  0  0  0
   -5.2194    2.8396    0.2640 H   0  0  0  0  0  0  0  0  0  0  0  0
   -4.7565    4.0912    1.4879 H   0  0  0  0  0  0  0  0  0  0  0  0
   -4.7545    4.4985   -0.2827 H   0  0  0  0  0  0  0  0  0  0  0  0
   -7.0941    3.7705    2.6426 H   0  0  0  0  0  0  0  0  0  0  0  0
   -9.8518    1.3685    0.7429 H   0  0  0  0  0  0  0  0  0  0  0  0
  -10.4629    3.7154    1.2368 H   0  0  0  0  0  0  0  0  0  0  0  0
  -10.9313    3.1824   -0.4176 H   0  0  0  0  0  0  0  0  0  0  0  0
   -9.5157    4.2641   -0.1939 H   0  0  0  0  0  0  0  0  0  0  0  0
   -8.1368    2.5543   -1.4774 H   0  0  0  0  0  0  0  0  0  0  0  0
   -8.8054   -0.6231    0.1432 H   0  0  0  0  0  0  0  0  0  0  0  0
  -10.9564   -1.7701   -0.1927 H   0  0  0  0  0  0  0  0  0  0  0  0
  -11.0701   -1.1946   -1.8925 H   0  0  0  0  0  0  0  0  0  0  0  0
  -11.2379   -0.0314   -0.5220 H   0  0  0  0  0  0  0  0  0  0  0  0
   -8.0436   -1.6552   -2.4891 H   0  0  0  0  0  0  0  0  0  0  0  0
   -8.8098   -2.7086    0.9387 H   0  0  0  0  0  0  0  0  0  0  0  0
  -10.0416   -4.7009    1.5972 H   0  0  0  0  0  0  0  0  0  0  0  0
   -9.6673   -5.5289    0.0287 H   0  0  0  0  0  0  0  0  0  0  0  0
  -10.7735   -4.1042    0.0750 H   0  0  0  0  0  0  0  0  0  0  0  0
   -6.4909   -3.7737    0.3470 H   0  0  0  0  0  0  0  0  0  0  0  0
   -5.3565   -6.4387    1.4621 H   0  0  0  0  0  0  0  0  0  0  0  0
   -7.9107   -8.0172    0.7905 H   0  0  0  0  0  0  0  0  0  0  0  0
   -6.9147   -8.1002    2.3033 H   0  0  0  0  0  0  0  0  0  0  0  0
   -6.2348   -8.6996    0.7392 H   0  0  0  0  0  0  0  0  0  0  0  0
   -6.9651   -6.4989   -1.1418 H   0  0  0  0  0  0  0  0  0  0  0  0
   -2.7879   -5.7920   -1.3418 H   0  0  0  0  0  0  0  0  0  0  0  0
   -3.8469   -4.8227    1.3681 H   0  0  0  0  0  0  0  0  0  0  0  0
   -4.0694   -3.8110   -0.1162 H   0  0  0  0  0  0  0  0  0  0  0  0
   -2.4367   -4.2627    0.3966 H   0  0  0  0  0  0  0  0  0  0  0  0
   -3.9316   -7.9069    0.2085 H   0  0  0  0  0  0  0  0  0  0  0  0
   -0.8864   -5.9441   -0.1324 H   0  0  0  0  0  0  0  0  0  0  0  0
   -0.0340   -4.7303    1.7199 H   0  0  0  0  0  0  0  0  0  0  0  0
   -0.0229   -6.1821    2.7967 H   0  0  0  0  0  0  0  0  0  0  0  0
   -1.5525   -5.3237    2.4150 H   0  0  0  0  0  0  0  0  0  0  0  0
    0.2974   -8.4397    0.8630 H   0  0  0  0  0  0  0  0  0  0  0  0
    3.1325   -5.8073   -0.8028 H   0  0  0  0  0  0  0  0  0  0  0  0
    0.7547   -5.4852   -1.9661 H   0  0  0  0  0  0  0  0  0  0  0  0
    0.5203   -4.2754   -0.6338 H   0  0  0  0  0  0  0  0  0  0  0  0
    1.9011   -4.1273   -1.7629 H   0  0  0  0  0  0  0  0  0  0  0  0
    2.1492   -5.5311    1.8792 H   0  0  0  0  0  0  0  0  0  0  0  0
    4.1300   -3.7602   -0.6330 H   0  0  0  0  0  0  0  0  0  0  0  0
    5.1233   -1.4236   -0.2364 H   0  0  0  0  0  0  0  0  0  0  0  0
    3.8812   -1.1781    1.0083 H   0  0  0  0  0  0  0  0  0  0  0  0
    1.4346   -0.6523    0.4422 H   0  0  0  0  0  0  0  0  0  0  0  0
    1.1132    0.2125   -1.0890 H   0  0  0  0  0  0  0  0  0  0  0  0
    5.3481   -3.2748    2.1096 H   0  0  0  0  0  0  0  0  0  0  0  0
    7.9009   -4.9392   -0.6157 H   0  0  0  0  0  0  0  0  0  0  0  0
    6.7363   -5.9084   -2.4556 H   0  0  0  0  0  0  0  0  0  0  0  0
    6.1690   -6.6992   -0.9421 H   0  0  0  0  0  0  0  0  0  0  0  0
    5.1325   -5.4788   -1.7855 H   0  0  0  0  0  0  0  0  0  0  0  0
    5.8909   -3.1591   -1.9762 H   0  0  0  0  0  0  0  0  0  0  0  0
    8.8718   -3.0814    0.2128 H   0  0  0  0  0  0  0  0  0  0  0  0
    9.7677   -4.2834   -1.8295 H   0  0  0  0  0  0  0  0  0  0  0  0
   10.4339   -2.7199   -2.4235 H   0  0  0  0  0  0  0  0  0  0  0  0
   11.0547   -3.4532   -0.8910 H   0  0  0  0  0  0  0  0  0  0  0  0
    9.6770   -0.4869   -1.1243 H   0  0  0  0  0  0  0  0  0  0  0  0
   12.2562   -0.2197    1.6356 H   0  0  0  0  0  0  0  0  0  0  0  0
   11.8432    0.2940   -1.3706 H   0  0  0  0  0  0  0  0  0  0  0  0
   13.3599    0.4455   -0.3954 H   0  0  0  0  0  0  0  0  0  0  0  0
   12.6709   -1.1904   -0.7158 H   0  0  0  0  0  0  0  0  0  0  0  0
   11.5630    2.1361    0.4453 H   0  0  0  0  0  0  0  0  0  0  0  0
  1  2  1  0
  2  3  2  0
  2  4  1  0
  4  5  1  0
  5  6  1  0
  6  7  1  0
  7  8  1  0
  8  9  1  0
  9 10  1  0
 10 11  2  0
 11 12  1  0
 12 13  2  0
 13 14  1  0
 13 15  1  0
 15 16  1  0
 16 17  1  0
 17 18  1  0
 18 19  1  0
 19 20  1  0
 19 21  2  0
 18 22  1  0
 22 23  1  0
 23 24  2  0
 23 25  1  0
 25 26  1  0
 25 27  1  0
 27 28  1  0
 28 29  2  0
 28 30  1  0
 30 31  1  0
 30 32  1  0
 32 33  1  0
 33 34  2  0
 33 35  1  0
 35 36  1  0
 35 37  1  0
 37 38  1  0
 38 39  2  0
 38 40  1  0
 40 41  1  0
 40 42  1  0
 42 43  1  0
 43 44  2  0
 43 45  1  0
 45 46  1  0
 45 47  1  0
 47 48  1  0
 48 49  2  0
 48 50  1  0
 50 51  1  0
 50 52  1  0
 52 53  1  0
 53 54  2  0
 53 55  1  0
 55 56  1  0
 55 57  1  0
 57 58  1  0
 58 59  2  0
 58 60  1  0
 60 61  1  0
 60 62  1  0
 62 63  1  0
 63 64  2  0
 63 65  1  0
 65 66  1  0
 65 67  1  0
 67 68  1  0
 68 69  2  0
 68 70  1  0
 70 71  1  0
 70 72  1  0
 72 73  1  0
 73 74  2  0
 73 75  1  0
 75 76  1  0
 76 77  1  0
 77 78  1  0
 75 79  1  0
 79 80  1  0
 80 81  2  0
 80 82  1  0
 82 83  1  0
 82 84  1  0
 84 85  1  0
 85 86  2  0
 85 87  1  0
 87 88  1  0
 87 89  1  0
 89 90  1  0
 90 91  2  0
 90 92  1  0
 92 93  1  0
 92 94  1  0
 94 95  1  0
 95 96  2  0
 95  5  1  0
 14  9  2  0
 78 11  1  0
  1 97  1  0
  1 98  1  0
  1 99  1  0
  4100  1  0
  5101  1  1
  6102  1  0
  6103  1  0
  8104  1  0
  8105  1  0
 10106  1  0
 12107  1  0
 14108  1  0
 15109  1  0
 15110  1  0
 17111  1  0
 17112  1  0
 18113  1  1
 20114  1  0
 20115  1  0
 22116  1  0
 25117  1  1
 26118  1  0
 26119  1  0
 26120  1  0
 27121  1  0
 30122  1  6
 31123  1  0
 31124  1  0
 31125  1  0
 32126  1  0
 35127  1  6
 36128  1  0
 36129  1  0
 36130  1  0
 37131  1  0
 40132  1  1
 41133  1  0
 41134  1  0
 41135  1  0
 42136  1  0
 45137  1  1
 46138  1  0
 46139  1  0
 46140  1  0
 47141  1  0
 50142  1  1
 51143  1  0
 51144  1  0
 51145  1  0
 52146  1  0
 55147  1  1
 56148  1  0
 56149  1  0
 56150  1  0
 57151  1  0
 60152  1  6
 61153  1  0
 61154  1  0
 61155  1  0
 62156  1  0
 65157  1  6
 66158  1  0
 66159  1  0
 66160  1  0
 67161  1  0
 70162  1  6
 71163  1  0
 71164  1  0
 71165  1  0
 72166  1  0
 75167  1  6
 76168  1  0
 76169  1  0
 78170  1  0
 78171  1  0
 79172  1  0
 82173  1  1
 83174  1  0
 83175  1  0
 83176  1  0
 84177  1  0
 87178  1  1
 88179  1  0
 88180  1  0
 88181  1  0
 89182  1  0
 92183  1  1
 93184  1  0
 93185  1  0
 93186  1  0
 94187  1  0
M  END
