
     RDKit          3D

187189  0  0  0  0  0  0  0  0999 V2000
  -11.8397   -5.0472    0.1997 C   0  0  0  0  0  0  0  0  0  0  0  0
  -11.1276   -4.8976   -1.1102 C   0  0  0  0  0  0  0  0  0  0  0  0
  -11.2425   -5.8297   -1.9546 O   0  0  0  0  0  0  0  0  0  0  0  0
  -10.3542   -3.7331   -1.4718 N   0  0  0  0  0  0  0  0  0  0  0  0
   -9.6903   -2.7654   -0.5822 C   0  0  2  0  0  0  0  0  0  0  0  0
   -8.8529   -3.4101    0.5516 C   0  0  0  0  0  0  0  0  0  0  0  0
   -8.1264   -5.0406    0.1104 S   0  0  0  0  0  0  0  0  0  0  0  0
   -6.8782   -4.4472   -1.0914 C   0  0  0  0  0  0  0  0  0  0  0  0
   -5.7353   -3.7409   -0.4216 C   0  0  0  0  0  0  0  0  0  0  0  0
   -5.3053   -2.4876   -0.8750 C   0  0  0  0  0  0  0  0  0  0  0  0
   -4.1832   -1.8639   -0.3071 C   0  0  0  0  0  0  0  0  0  0  0  0
   -3.4920   -2.5109    0.7281 C   0  0  0  0  0  0  0  0  0  0  0  0
   -3.9186   -3.7571    1.2037 C   0  0  0  0  0  0  0  0  0  0  0  0
   -5.0395   -4.3695    0.6208 C   0  0  0  0  0  0  0  0  0  0  0  0
   -3.2453   -4.3837    2.3963 C   0  0  0  0  0  0  0  0  0  0  0  0
   -2.8969   -6.1682    2.1613 S   0  0  0  0  0  0  0  0  0  0  0  0
   -1.6823   -5.9928    0.7957 C   0  0  0  0  0  0  0  0  0  0  0  0
   -0.5384   -7.0084    0.9558 C   0  0  1  0  0  0  0  0  0  0  0  0
   -1.0356   -8.4273    0.8388 C   0  0  0  0  0  0  0  0  0  0  0  0
   -1.6116   -8.9145   -0.3749 N   0  0  0  0  0  0  0  0  0  0  0  0
   -0.9505   -9.1926    1.8327 O   0  0  0  0  0  0  0  0  0  0  0  0
    0.5068   -6.7720   -0.0419 N   0  0  0  0  0  0  0  0  0  0  0  0
    1.8418   -7.2441    0.1489 C   0  0  0  0  0  0  0  0  0  0  0  0
    2.0413   -8.3184    0.7840 O   0  0  0  0  0  0  0  0  0  0  0  0
    2.9895   -6.3977   -0.3264 C   0  0  1  0  0  0  0  0  0  0  0  0
    3.2311   -5.2250    0.6233 C   0  0  0  0  0  0  0  0  0  0  0  0
    4.2210   -7.1794   -0.5421 N   0  0  0  0  0  0  0  0  0  0  0  0
    5.0709   -7.6586    0.5249 C   0  0  0  0  0  0  0  0  0  0  0  0
    4.5796   -7.8964    1.6644 O   0  0  0  0  0  0  0  0  0  0  0  0
    6.5235   -7.9956    0.2809 C   0  0  1  0  0  0  0  0  0  0  0  0
    6.6813   -9.5023    0.0512 C   0  0  0  0  0  0  0  0  0  0  0  0
    7.0561   -7.2560   -0.8782 N   0  0  0  0  0  0  0  0  0  0  0  0
    7.6652   -5.9551   -0.8249 C   0  0  0  0  0  0  0  0  0  0  0  0
    7.7446   -5.2881   -1.8963 O   0  0  0  0  0  0  0  0  0  0  0  0
    8.3338   -5.4156    0.4189 C   0  0  1  0  0  0  0  0  0  0  0  0
    9.7209   -6.0741    0.5463 C   0  0  0  0  0  0  0  0  0  0  0  0
    8.3737   -3.9446    0.3616 N   0  0  0  0  0  0  0  0  0  0  0  0
    9.5469   -3.1138    0.2705 C   0  0  0  0  0  0  0  0  0  0  0  0
   10.5799   -3.4055    0.9329 O   0  0  0  0  0  0  0  0  0  0  0  0
    9.5185   -1.8048   -0.4748 C   0  0  1  0  0  0  0  0  0  0  0  0
    8.6501   -1.8734   -1.7357 C   0  0  0  0  0  0  0  0  0  0  0  0
    9.0111   -0.7536    0.4194 N   0  0  0  0  0  0  0  0  0  0  0  0
    9.8086    0.3356    0.9205 C   0  0  0  0  0  0  0  0  0  0  0  0
    9.5636    0.7679    2.0753 O   0  0  0  0  0  0  0  0  0  0  0  0
   10.9418    0.9583    0.1194 C   0  0  1  0  0  0  0  0  0  0  0  0
   10.5502    1.3027   -1.3296 C   0  0  0  0  0  0  0  0  0  0  0  0
   11.5087    2.1277    0.7999 N   0  0  0  0  0  0  0  0  0  0  0  0
   10.8903    3.4209    0.9546 C   0  0  0  0  0  0  0  0  0  0  0  0
   11.6107    4.3915    1.3217 O   0  0  0  0  0  0  0  0  0  0  0  0
    9.4276    3.6810    0.7015 C   0  0  1  0  0  0  0  0  0  0  0  0
    8.7630    4.2259    1.9744 C   0  0  0  0  0  0  0  0  0  0  0  0
    9.2854    4.5731   -0.4593 N   0  0  0  0  0  0  0  0  0  0  0  0
    8.5328    5.7958   -0.4515 C   0  0  0  0  0  0  0  0  0  0  0  0
    9.0112    6.8154    0.1118 O   0  0  0  0  0  0  0  0  0  0  0  0
    7.1862    5.8994   -1.1280 C   0  0  1  0  0  0  0  0  0  0  0  0
    6.8058    4.6178   -1.8843 C   0  0  0  0  0  0  0  0  0  0  0  0
    6.1624    6.2016   -0.1188 N   0  0  0  0  0  0  0  0  0  0  0  0
    4.8666    6.6742   -0.4981 C   0  0  0  0  0  0  0  0  0  0  0  0
    4.7489    7.4480   -1.4882 O   0  0  0  0  0  0  0  0  0  0  0  0
    3.6600    6.2820    0.3174 C   0  0  1  0  0  0  0  0  0  0  0  0
    3.3192    7.3633    1.3504 C   0  0  0  0  0  0  0  0  0  0  0  0
    2.5217    5.9638   -0.5511 N   0  0  0  0  0  0  0  0  0  0  0  0
    1.6893    6.9658   -1.1431 C   0  0  0  0  0  0  0  0  0  0  0  0
    2.0159    7.4747   -2.2469 O   0  0  0  0  0  0  0  0  0  0  0  0
    0.3818    7.3252   -0.4984 C   0  0  1  0  0  0  0  0  0  0  0  0
    0.2584    8.8372   -0.3254 C   0  0  0  0  0  0  0  0  0  0  0  0
   -0.7327    6.8252   -1.3139 N   0  0  0  0  0  0  0  0  0  0  0  0
   -2.0445    6.5256   -0.8047 C   0  0  0  0  0  0  0  0  0  0  0  0
   -2.9704    6.2953   -1.6304 O   0  0  0  0  0  0  0  0  0  0  0  0
   -2.3278    6.4283    0.6813 C   0  0  1  0  0  0  0  0  0  0  0  0
   -3.7664    6.7970    1.0459 C   0  0  0  0  0  0  0  0  0  0  0  0
   -1.9348    5.1151    1.2128 N   0  0  0  0  0  0  0  0  0  0  0  0
   -2.3085    3.8322    0.6757 C   0  0  0  0  0  0  0  0  0  0  0  0
   -1.4376    2.9178    0.6648 O   0  0  0  0  0  0  0  0  0  0  0  0
   -3.7204    3.5178    0.2233 C   0  0  1  0  0  0  0  0  0  0  0  0
   -3.8172    2.1847   -0.5518 C   0  0  0  0  0  0  0  0  0  0  0  0
   -3.7113    0.7095    0.5366 S   0  0  0  0  0  0  0  0  0  0  0  0
   -3.7053   -0.5248   -0.8098 C   0  0  0  0  0  0  0  0  0  0  0  0
   -4.6345    3.5563    1.3742 N   0  0  0  0  0  0  0  0  0  0  0  0
   -5.9961    3.1171    1.3135 C   0  0  0  0  0  0  0  0  0  0  0  0
   -6.2745    1.9630    1.7238 O   0  0  0  0  0  0  0  0  0  0  0  0
   -7.1134    4.0164    0.8428 C   0  0  1  0  0  0  0  0  0  0  0  0
   -7.2558    5.2544    1.7264 C   0  0  0  0  0  0  0  0  0  0  0  0
   -6.9413    4.3943   -0.5632 N   0  0  0  0  0  0  0  0  0  0  0  0
   -7.7915    3.9607   -1.6420 C   0  0  0  0  0  0  0  0  0  0  0  0
   -7.3225    3.9616   -2.8165 O   0  0  0  0  0  0  0  0  0  0  0  0
   -9.2292    3.5390   -1.4373 C   0  0  1  0  0  0  0  0  0  0  0  0
  -10.1531    4.2400   -2.4420 C   0  0  0  0  0  0  0  0  0  0  0  0
   -9.3678    2.0804   -1.5502 N   0  0  0  0  0  0  0  0  0  0  0  0
   -8.6098    1.1746   -0.7398 C   0  0  0  0  0  0  0  0  0  0  0  0
   -7.3649    1.0889   -0.8961 O   0  0  0  0  0  0  0  0  0  0  0  0
   -9.2798    0.3184    0.3008 C   0  0  1  0  0  0  0  0  0  0  0  0
   -9.6989    1.1508    1.5130 C   0  0  0  0  0  0  0  0  0  0  0  0
  -10.4597   -0.3477   -0.2653 N   0  0  0  0  0  0  0  0  0  0  0  0
  -10.6782   -1.7464   -0.0577 C   0  0  0  0  0  0  0  0  0  0  0  0
  -11.7071   -2.1146    0.5645 O   0  0  0  0  0  0  0  0  0  0  0  0
  -12.6810   -4.3278    0.2465 H   0  0  0  0  0  0  0  0  0  0  0  0
  -12.2702   -6.0678    0.2795 H   0  0  0  0  0  0  0  0  0  0  0  0
  -11.1583   -4.9042    1.0575 H   0  0  0  0  0  0  0  0  0  0  0  0
  -10.1098   -3.6559   -2.4847 H   0  0  0  0  0  0  0  0  0  0  0  0
   -8.9620   -2.2017   -1.2062 H   0  0  0  0  0  0  0  0  0  0  0  0
   -9.4691   -3.5389    1.4625 H   0  0  0  0  0  0  0  0  0  0  0  0
   -8.0324   -2.7201    0.8407 H   0  0  0  0  0  0  0  0  0  0  0  0
   -6.4694   -5.3323   -1.6163 H   0  0  0  0  0  0  0  0  0  0  0  0
   -7.3627   -3.8193   -1.8675 H   0  0  0  0  0  0  0  0  0  0  0  0
   -5.8425   -1.9993   -1.6828 H   0  0  0  0  0  0  0  0  0  0  0  0
   -2.6397   -2.0225    1.1894 H   0  0  0  0  0  0  0  0  0  0  0  0
   -5.3813   -5.3308    0.9917 H   0  0  0  0  0  0  0  0  0  0  0  0
   -2.2928   -3.8666    2.6499 H   0  0  0  0  0  0  0  0  0  0  0  0
   -3.9140   -4.2844    3.2754 H   0  0  0  0  0  0  0  0  0  0  0  0
   -2.2143   -6.1408   -0.1722 H   0  0  0  0  0  0  0  0  0  0  0  0
   -1.2469   -4.9658    0.7844 H   0  0  0  0  0  0  0  0  0  0  0  0
   -0.1007   -6.8530    1.9684 H   0  0  0  0  0  0  0  0  0  0  0  0
   -1.6525   -8.3089   -1.2230 H   0  0  0  0  0  0  0  0  0  0  0  0
   -1.9545   -9.9002   -0.4381 H   0  0  0  0  0  0  0  0  0  0  0  0
    0.3372   -6.0660   -0.7958 H   0  0  0  0  0  0  0  0  0  0  0  0
    2.6879   -5.9696   -1.3084 H   0  0  0  0  0  0  0  0  0  0  0  0
    4.1458   -4.6646    0.3212 H   0  0  0  0  0  0  0  0  0  0  0  0
    3.3602   -5.5781    1.6691 H   0  0  0  0  0  0  0  0  0  0  0  0
    2.3647   -4.5295    0.5954 H   0  0  0  0  0  0  0  0  0  0  0  0
    4.6330   -7.0798   -1.4847 H   0  0  0  0  0  0  0  0  0  0  0  0
    7.1062   -7.7533    1.1941 H   0  0  0  0  0  0  0  0  0  0  0  0
    6.0333   -9.8479   -0.7832 H   0  0  0  0  0  0  0  0  0  0  0  0
    6.4018  -10.0572    0.9749 H   0  0  0  0  0  0  0  0  0  0  0  0
    7.7406   -9.7411   -0.1870 H   0  0  0  0  0  0  0  0  0  0  0  0
    6.8386   -7.6291   -1.8310 H   0  0  0  0  0  0  0  0  0  0  0  0
    7.7391   -5.6803    1.3120 H   0  0  0  0  0  0  0  0  0  0  0  0
   10.3916   -5.7488   -0.2788 H   0  0  0  0  0  0  0  0  0  0  0  0
   10.1724   -5.8256    1.5268 H   0  0  0  0  0  0  0  0  0  0  0  0
    9.6255   -7.1798    0.4986 H   0  0  0  0  0  0  0  0  0  0  0  0
    7.4487   -3.4641    0.2867 H   0  0  0  0  0  0  0  0  0  0  0  0
   10.5499   -1.5786   -0.7931 H   0  0  0  0  0  0  0  0  0  0  0  0
    8.9931   -2.7059   -2.3885 H   0  0  0  0  0  0  0  0  0  0  0  0
    8.7315   -0.9237   -2.3068 H   0  0  0  0  0  0  0  0  0  0  0  0
    7.5805   -2.0196   -1.4894 H   0  0  0  0  0  0  0  0  0  0  0  0
    8.0898   -0.9114    0.8718 H   0  0  0  0  0  0  0  0  0  0  0  0
   11.7492    0.1875    0.0667 H   0  0  0  0  0  0  0  0  0  0  0  0
   10.6933    0.4245   -1.9903 H   0  0  0  0  0  0  0  0  0  0  0  0
    9.4937    1.6349   -1.4077 H   0  0  0  0  0  0  0  0  0  0  0  0
   11.2056    2.1090   -1.7235 H   0  0  0  0  0  0  0  0  0  0  0  0
   12.4935    2.0361    1.1474 H   0  0  0  0  0  0  0  0  0  0  0  0
    8.8964    2.7426    0.4660 H   0  0  0  0  0  0  0  0  0  0  0  0
    7.6646    4.2952    1.8366 H   0  0  0  0  0  0  0  0  0  0  0  0
    8.9456    3.5415    2.8315 H   0  0  0  0  0  0  0  0  0  0  0  0
    9.1635    5.2277    2.2400 H   0  0  0  0  0  0  0  0  0  0  0  0
    9.6227    4.2263   -1.3863 H   0  0  0  0  0  0  0  0  0  0  0  0
    7.2317    6.7323   -1.8676 H   0  0  0  0  0  0  0  0  0  0  0  0
    7.5604    4.3934   -2.6745 H   0  0  0  0  0  0  0  0  0  0  0  0
    5.8201    4.7434   -2.3829 H   0  0  0  0  0  0  0  0  0  0  0  0
    6.7435    3.7528   -1.1863 H   0  0  0  0  0  0  0  0  0  0  0  0
    6.2434    5.7415    0.8138 H   0  0  0  0  0  0  0  0  0  0  0  0
    3.9138    5.3555    0.8854 H   0  0  0  0  0  0  0  0  0  0  0  0
    3.1903    8.3497    0.8573 H   0  0  0  0  0  0  0  0  0  0  0  0
    2.3852    7.0944    1.8878 H   0  0  0  0  0  0  0  0  0  0  0  0
    4.1424    7.4424    2.0941 H   0  0  0  0  0  0  0  0  0  0  0  0
    2.4760    5.0010   -0.9553 H   0  0  0  0  0  0  0  0  0  0  0  0
    0.3619    6.8453    0.5030 H   0  0  0  0  0  0  0  0  0  0  0  0
   -0.7146    9.0973    0.1383 H   0  0  0  0  0  0  0  0  0  0  0  0
    0.3182    9.3492   -1.3108 H   0  0  0  0  0  0  0  0  0  0  0  0
    1.0629    9.2185    0.3333 H   0  0  0  0  0  0  0  0  0  0  0  0
   -0.6207    6.8327   -2.3557 H   0  0  0  0  0  0  0  0  0  0  0  0
   -1.7200    7.1968    1.2064 H   0  0  0  0  0  0  0  0  0  0  0  0
   -3.9478    7.8715    0.8344 H   0  0  0  0  0  0  0  0  0  0  0  0
   -4.4987    6.2190    0.4581 H   0  0  0  0  0  0  0  0  0  0  0  0
   -3.9471    6.6223    2.1271 H   0  0  0  0  0  0  0  0  0  0  0  0
   -1.1401    5.1159    1.8898 H   0  0  0  0  0  0  0  0  0  0  0  0
   -4.0182    4.2972   -0.4967 H   0  0  0  0  0  0  0  0  0  0  0  0
   -3.0073    2.1426   -1.3126 H   0  0  0  0  0  0  0  0  0  0  0  0
   -4.7814    2.1454   -1.0941 H   0  0  0  0  0  0  0  0  0  0  0  0
   -2.6718   -0.6258   -1.1932 H   0  0  0  0  0  0  0  0  0  0  0  0
   -4.3455   -0.1800   -1.6482 H   0  0  0  0  0  0  0  0  0  0  0  0
   -4.2201    3.6147    2.3334 H   0  0  0  0  0  0  0  0  0  0  0  0
   -8.0496    3.4441    0.9718 H   0  0  0  0  0  0  0  0  0  0  0  0
   -6.3237    5.8541    1.7325 H   0  0  0  0  0  0  0  0  0  0  0  0
   -7.4859    4.9535    2.7734 H   0  0  0  0  0  0  0  0  0  0  0  0
   -8.0888    5.8942    1.3512 H   0  0  0  0  0  0  0  0  0  0  0  0
   -6.1178    4.9783   -0.8222 H   0  0  0  0  0  0  0  0  0  0  0  0
   -9.5858    3.8565   -0.4353 H   0  0  0  0  0  0  0  0  0  0  0  0
  -10.0126    5.3411   -2.3976 H   0  0  0  0  0  0  0  0  0  0  0  0
  -11.2132    4.0145   -2.2025 H   0  0  0  0  0  0  0  0  0  0  0  0
   -9.9394    3.8929   -3.4758 H   0  0  0  0  0  0  0  0  0  0  0  0
  -10.1829    1.6870   -2.0835 H   0  0  0  0  0  0  0  0  0  0  0  0
   -8.5509   -0.4392    0.6596 H   0  0  0  0  0  0  0  0  0  0  0  0
  -10.3354    2.0085    1.2027 H   0  0  0  0  0  0  0  0  0  0  0  0
  -10.2711    0.5206    2.2284 H   0  0  0  0  0  0  0  0  0  0  0  0
   -8.8063    1.5357    2.0510 H   0  0  0  0  0  0  0  0  0  0  0  0
  -11.2942    0.2409   -0.4876 H   0  0  0  0  0  0  0  0  0  0  0  0
  1  2  1  0
  2  3  2  0
  2  4  1  0
  4  5  1  0
  5  6  1  0
  6  7  1  0
  7  8  1  0
  8  9  1  0
  9 10  1  0
 10 11  2  0
 11 12  1  0
 12 13  2  0
 13 14  1  0
 13 15  1  0
 15 16  1  0
 16 17  1  0
 17 18  1  0
 18 19  1  0
 19 20  1  0
 19 21  2  0
 18 22  1  0
 22 23  1  0
 23 24  2  0
 23 25  1  0
 25 26  1  0
 25 27  1  0
 27 28  1  0
 28 29  2  0
 28 30  1  0
 30 31  1  0
 30 32  1  0
 32 33  1  0
 33 34  2  0
 33 35  1  0
 35 36  1  0
 35 37  1  0
 37 38  1  0
 38 39  2  0
 38 40  1  0
 40 41  1  0
 40 42  1  0
 42 43  1  0
 43 44  2  0
 43 45  1  0
 45 46  1  0
 45 47  1  0
 47 48  1  0
 48 49  2  0
 48 50  1  0
 50 51  1  0
 50 52  1  0
 52 53  1  0
 53 54  2  0
 53 55  1  0
 55 56  1  0
 55 57  1  0
 57 58  1  0
 58 59  2  0
 58 60  1  0
 60 61  1  0
 60 62  1  0
 62 63  1  0
 63 64  2  0
 63 65  1  0
 65 66  1  0
 65 67  1  0
 67 68  1  0
 68 69  2  0
 68 70  1  0
 70 71  1  0
 70 72  1  0
 72 73  1  0
 73 74  2  0
 73 75  1  0
 75 76  1  0
 76 77  1  0
 77 78  1  0
 75 79  1  0
 79 80  1  0
 80 81  2  0
 80 82  1  0
 82 83  1  0
 82 84  1  0
 84 85  1  0
 85 86  2  0
 85 87  1  0
 87 88  1  0
 87 89  1  0
 89 90  1  0
 90 91  2  0
 90 92  1  0
 92 93  1  0
 92 94  1  0
 94 95  1  0
 95 96  2  0
 95  5  1  0
 14  9  2  0
 78 11  1  0
  1 97  1  0
  1 98  1  0
  1 99  1  0
  4100  1  0
  5101  1  6
  6102  1  0
  6103  1  0
  8104  1  0
  8105  1  0
 10106  1  0
 12107  1  0
 14108  1  0
 15109  1  0
 15110  1  0
 17111  1  0
 17112  1  0
 18113  1  1
 20114  1  0
 20115  1  0
 22116  1  0
 25117  1  6
 26118  1  0
 26119  1  0
 26120  1  0
 27121  1  0
 30122  1  1
 31123  1  0
 31124  1  0
 31125  1  0
 32126  1  0
 35127  1  1
 36128  1  0
 36129  1  0
 36130  1  0
 37131  1  0
 40132  1  6
 41133  1  0
 41134  1  0
 41135  1  0
 42136  1  0
 45137  1  6
 46138  1  0
 46139  1  0
 46140  1  0
 47141  1  0
 50142  1  6
 51143  1  0
 51144  1  0
 51145  1  0
 52146  1  0
 55147  1  6
 56148  1  0
 56149  1  0
 56150  1  0
 57151  1  0
 60152  1  1
 61153  1  0
 61154  1  0
 61155  1  0
 62156  1  0
 65157  1  1
 66158  1  0
 66159  1  0
 66160  1  0
 67161  1  0
 70162  1  1
 71163  1  0
 71164  1  0
 71165  1  0
 72166  1  0
 75167  1  6
 76168  1  0
 76169  1  0
 78170  1  0
 78171  1  0
 79172  1  0
 82173  1  6
 83174  1  0
 83175  1  0
 83176  1  0
 84177  1  0
 87178  1  1
 88179  1  0
 88180  1  0
 88181  1  0
 89182  1  0
 92183  1  1
 93184  1  0
 93185  1  0
 93186  1  0
 94187  1  0
M  END
