
     RDKit          3D

187189  0  0  0  0  0  0  0  0999 V2000
  -12.2525   -5.4587    0.1693 C   0  0  0  0  0  0  0  0  0  0  0  0
  -11.2539   -5.0013   -0.8517 C   0  0  0  0  0  0  0  0  0  0  0  0
  -10.7251   -5.8510   -1.6211 O   0  0  0  0  0  0  0  0  0  0  0  0
  -10.8939   -3.6090   -0.9356 N   0  0  0  0  0  0  0  0  0  0  0  0
   -9.8207   -3.0839   -1.7983 C   0  0  2  0  0  0  0  0  0  0  0  0
   -8.4800   -3.1291   -1.0382 C   0  0  0  0  0  0  0  0  0  0  0  0
   -7.8775   -4.8505   -0.8571 S   0  0  0  0  0  0  0  0  0  0  0  0
   -6.9739   -4.6156    0.7103 C   0  0  0  0  0  0  0  0  0  0  0  0
   -5.7020   -3.8468    0.4882 C   0  0  0  0  0  0  0  0  0  0  0  0
   -4.5400   -4.5056    0.0642 C   0  0  0  0  0  0  0  0  0  0  0  0
   -3.3327   -3.8001   -0.0624 C   0  0  0  0  0  0  0  0  0  0  0  0
   -3.3058   -2.4255    0.1861 C   0  0  0  0  0  0  0  0  0  0  0  0
   -4.4736   -1.7400    0.5469 C   0  0  0  0  0  0  0  0  0  0  0  0
   -5.6567   -2.4681    0.7435 C   0  0  0  0  0  0  0  0  0  0  0  0
   -4.4819   -0.2606    0.8619 C   0  0  0  0  0  0  0  0  0  0  0  0
   -3.0963    0.6640    0.0870 S   0  0  0  0  0  0  0  0  0  0  0  0
   -4.0483    2.0285   -0.6933 C   0  0  0  0  0  0  0  0  0  0  0  0
   -4.2215    3.2612    0.2179 C   0  0  1  0  0  0  0  0  0  0  0  0
   -5.0256    2.9252    1.3992 N   0  0  0  0  0  0  0  0  0  0  0  0
   -6.4624    2.8984    1.4211 C   0  0  0  0  0  0  0  0  0  0  0  0
   -7.0381    1.9089    1.9567 O   0  0  0  0  0  0  0  0  0  0  0  0
   -7.3327    3.9969    0.8498 C   0  0  1  0  0  0  0  0  0  0  0  0
   -6.7793    5.4000    1.1279 C   0  0  0  0  0  0  0  0  0  0  0  0
   -7.5483    3.7963   -0.5861 N   0  0  0  0  0  0  0  0  0  0  0  0
   -8.8115    3.9294   -1.2554 C   0  0  0  0  0  0  0  0  0  0  0  0
   -8.8199    4.2838   -2.4652 O   0  0  0  0  0  0  0  0  0  0  0  0
  -10.1264    3.6285   -0.5700 C   0  0  1  0  0  0  0  0  0  0  0  0
  -10.7923    4.9362   -0.1318 C   0  0  0  0  0  0  0  0  0  0  0  0
  -11.0024    2.9007   -1.4954 N   0  0  0  0  0  0  0  0  0  0  0  0
  -10.7881    1.5372   -1.9020 C   0  0  0  0  0  0  0  0  0  0  0  0
  -11.3749    1.1280   -2.9416 O   0  0  0  0  0  0  0  0  0  0  0  0
   -9.9363    0.5875   -1.0862 C   0  0  1  0  0  0  0  0  0  0  0  0
  -10.7028    0.0882    0.1421 C   0  0  0  0  0  0  0  0  0  0  0  0
   -9.4279   -0.5384   -1.8887 N   0  0  0  0  0  0  0  0  0  0  0  0
  -10.2026   -1.6918   -2.2423 C   0  0  0  0  0  0  0  0  0  0  0  0
  -11.2587   -1.5542   -2.9193 O   0  0  0  0  0  0  0  0  0  0  0  0
   -2.9301    3.9124    0.6320 C   0  0  0  0  0  0  0  0  0  0  0  0
   -1.8178    3.3909    0.3433 O   0  0  0  0  0  0  0  0  0  0  0  0
   -2.9702    5.1415    1.3739 N   0  0  0  0  0  0  0  0  0  0  0  0
   -1.8274    6.0605    1.4090 C   0  0  2  0  0  0  0  0  0  0  0  0
   -2.0543    7.1488    2.4655 C   0  0  0  0  0  0  0  0  0  0  0  0
   -1.6538    6.6888    0.0475 C   0  0  0  0  0  0  0  0  0  0  0  0
   -2.6719    7.1369   -0.5566 O   0  0  0  0  0  0  0  0  0  0  0  0
   -0.3746    6.7466   -0.6043 N   0  0  0  0  0  0  0  0  0  0  0  0
    0.8583    7.1141    0.0930 C   0  0  2  0  0  0  0  0  0  0  0  0
    1.0120    8.6386    0.1010 C   0  0  0  0  0  0  0  0  0  0  0  0
    2.0259    6.4314   -0.5665 C   0  0  0  0  0  0  0  0  0  0  0  0
    2.2725    5.2258   -0.2950 O   0  0  0  0  0  0  0  0  0  0  0  0
    2.8439    7.1162   -1.5191 N   0  0  0  0  0  0  0  0  0  0  0  0
    4.1912    7.5589   -1.1594 C   0  0  2  0  0  0  0  0  0  0  0  0
    4.4382    8.9751   -1.7049 C   0  0  0  0  0  0  0  0  0  0  0  0
    5.2076    6.5981   -1.7256 C   0  0  0  0  0  0  0  0  0  0  0  0
    5.2075    6.3769   -2.9663 O   0  0  0  0  0  0  0  0  0  0  0  0
    6.2289    5.9857   -0.9205 N   0  0  0  0  0  0  0  0  0  0  0  0
    6.1480    5.8013    0.5357 C   0  0  2  0  0  0  0  0  0  0  0  0
    6.7917    6.9970    1.2423 C   0  0  0  0  0  0  0  0  0  0  0  0
    6.8416    4.5233    0.9618 C   0  0  0  0  0  0  0  0  0  0  0  0
    6.8418    4.1867    2.1778 O   0  0  0  0  0  0  0  0  0  0  0  0
    7.5227    3.7035    0.0091 N   0  0  0  0  0  0  0  0  0  0  0  0
    8.9534    3.3943    0.0933 C   0  0  2  0  0  0  0  0  0  0  0  0
    9.7571    4.6334    0.5252 C   0  0  0  0  0  0  0  0  0  0  0  0
    9.4570    2.9491   -1.2666 C   0  0  0  0  0  0  0  0  0  0  0  0
    9.2959    3.7249   -2.2458 O   0  0  0  0  0  0  0  0  0  0  0  0
   10.1346    1.6970   -1.4910 N   0  0  0  0  0  0  0  0  0  0  0  0
   10.5312    0.7457   -0.4469 C   0  0  2  0  0  0  0  0  0  0  0  0
   11.7308    1.2907    0.3436 C   0  0  0  0  0  0  0  0  0  0  0  0
   10.9093   -0.5929   -1.0457 C   0  0  0  0  0  0  0  0  0  0  0  0
   11.6152   -0.6193   -2.0940 O   0  0  0  0  0  0  0  0  0  0  0  0
   10.5264   -1.8410   -0.4408 N   0  0  0  0  0  0  0  0  0  0  0  0
   10.0228   -1.9953    0.9313 C   0  0  2  0  0  0  0  0  0  0  0  0
   10.8126   -3.0889    1.6603 C   0  0  0  0  0  0  0  0  0  0  0  0
    8.5346   -2.2541    0.9070 C   0  0  0  0  0  0  0  0  0  0  0  0
    7.7762   -1.4617    1.5364 O   0  0  0  0  0  0  0  0  0  0  0  0
    7.9412   -3.2596    0.0652 N   0  0  0  0  0  0  0  0  0  0  0  0
    8.2112   -4.6904    0.2096 C   0  0  2  0  0  0  0  0  0  0  0  0
    8.9186   -5.2194   -1.0436 C   0  0  0  0  0  0  0  0  0  0  0  0
    6.9257   -5.4332    0.4894 C   0  0  0  0  0  0  0  0  0  0  0  0
    6.5942   -5.6554    1.6883 O   0  0  0  0  0  0  0  0  0  0  0  0
    6.0940   -5.9057   -0.5815 N   0  0  0  0  0  0  0  0  0  0  0  0
    5.3705   -7.1831   -0.4758 C   0  0  2  0  0  0  0  0  0  0  0  0
    6.3797   -8.3250   -0.3172 C   0  0  0  0  0  0  0  0  0  0  0  0
    4.5381   -7.4291   -1.7134 C   0  0  0  0  0  0  0  0  0  0  0  0
    5.0979   -7.3188   -2.8434 O   0  0  0  0  0  0  0  0  0  0  0  0
    3.1633   -7.8640   -1.6683 N   0  0  0  0  0  0  0  0  0  0  0  0
    2.4159   -8.2714   -0.4609 C   0  0  2  0  0  0  0  0  0  0  0  0
    3.0780   -9.4879    0.2101 C   0  0  0  0  0  0  0  0  0  0  0  0
    0.9981   -8.6502   -0.8537 C   0  0  0  0  0  0  0  0  0  0  0  0
    0.8507   -9.5255   -1.7476 O   0  0  0  0  0  0  0  0  0  0  0  0
   -0.1840   -8.1176   -0.2219 N   0  0  0  0  0  0  0  0  0  0  0  0
   -0.2620   -7.0946    0.8359 C   0  0  1  0  0  0  0  0  0  0  0  0
    0.3999   -7.5627    2.1103 C   0  0  0  0  0  0  0  0  0  0  0  0
    0.6566   -6.6625    3.1882 N   0  0  0  0  0  0  0  0  0  0  0  0
    0.6610   -8.7854    2.2669 O   0  0  0  0  0  0  0  0  0  0  0  0
    0.2571   -5.7275    0.3187 C   0  0  0  0  0  0  0  0  0  0  0  0
   -0.8228   -4.3549    0.8819 S   0  0  0  0  0  0  0  0  0  0  0  0
   -2.0651   -4.5178   -0.4518 C   0  0  0  0  0  0  0  0  0  0  0  0
  -11.7713   -6.1826    0.8670 H   0  0  0  0  0  0  0  0  0  0  0  0
  -12.6417   -4.6106    0.7684 H   0  0  0  0  0  0  0  0  0  0  0  0
  -13.0987   -5.9649   -0.3423 H   0  0  0  0  0  0  0  0  0  0  0  0
  -11.4205   -2.9283   -0.3304 H   0  0  0  0  0  0  0  0  0  0  0  0
   -9.7358   -3.7070   -2.7129 H   0  0  0  0  0  0  0  0  0  0  0  0
   -7.6966   -2.5747   -1.5987 H   0  0  0  0  0  0  0  0  0  0  0  0
   -8.6131   -2.6441   -0.0469 H   0  0  0  0  0  0  0  0  0  0  0  0
   -6.7255   -5.6158    1.1200 H   0  0  0  0  0  0  0  0  0  0  0  0
   -7.6228   -4.1219    1.4660 H   0  0  0  0  0  0  0  0  0  0  0  0
   -4.5663   -5.5737   -0.1306 H   0  0  0  0  0  0  0  0  0  0  0  0
   -2.3616   -1.9045    0.1011 H   0  0  0  0  0  0  0  0  0  0  0  0
   -6.5522   -1.9636    1.0896 H   0  0  0  0  0  0  0  0  0  0  0  0
   -5.4651    0.1607    0.5604 H   0  0  0  0  0  0  0  0  0  0  0  0
   -4.3955   -0.1541    1.9625 H   0  0  0  0  0  0  0  0  0  0  0  0
   -5.0414    1.6772   -1.0556 H   0  0  0  0  0  0  0  0  0  0  0  0
   -3.4812    2.3492   -1.5971 H   0  0  0  0  0  0  0  0  0  0  0  0
   -4.7384    4.0204   -0.3936 H   0  0  0  0  0  0  0  0  0  0  0  0
   -4.5384    2.3957    2.1572 H   0  0  0  0  0  0  0  0  0  0  0  0
   -8.3020    3.9559    1.3916 H   0  0  0  0  0  0  0  0  0  0  0  0
   -7.5737    6.1553    0.9359 H   0  0  0  0  0  0  0  0  0  0  0  0
   -5.9197    5.6489    0.4726 H   0  0  0  0  0  0  0  0  0  0  0  0
   -6.4706    5.4898    2.1892 H   0  0  0  0  0  0  0  0  0  0  0  0
   -6.7209    3.7162   -1.2102 H   0  0  0  0  0  0  0  0  0  0  0  0
   -9.9717    3.0106    0.3364 H   0  0  0  0  0  0  0  0  0  0  0  0
  -10.1632    5.4649    0.6175 H   0  0  0  0  0  0  0  0  0  0  0  0
  -10.9606    5.6040   -1.0030 H   0  0  0  0  0  0  0  0  0  0  0  0
  -11.7820    4.7213    0.3408 H   0  0  0  0  0  0  0  0  0  0  0  0
  -11.7301    3.4401   -2.0187 H   0  0  0  0  0  0  0  0  0  0  0  0
   -9.0455    1.1416   -0.7176 H   0  0  0  0  0  0  0  0  0  0  0  0
  -10.0686   -0.5949    0.7368 H   0  0  0  0  0  0  0  0  0  0  0  0
  -10.9938    0.9429    0.7892 H   0  0  0  0  0  0  0  0  0  0  0  0
  -11.6317   -0.4421   -0.1648 H   0  0  0  0  0  0  0  0  0  0  0  0
   -8.4326   -0.4955   -2.2119 H   0  0  0  0  0  0  0  0  0  0  0  0
   -3.8662    5.4048    1.8556 H   0  0  0  0  0  0  0  0  0  0  0  0
   -0.9185    5.4855    1.6983 H   0  0  0  0  0  0  0  0  0  0  0  0
   -1.1774    7.8274    2.5060 H   0  0  0  0  0  0  0  0  0  0  0  0
   -2.9652    7.7429    2.2300 H   0  0  0  0  0  0  0  0  0  0  0  0
   -2.1837    6.6829    3.4685 H   0  0  0  0  0  0  0  0  0  0  0  0
   -0.3917    6.8601   -1.6445 H   0  0  0  0  0  0  0  0  0  0  0  0
    0.8206    6.7830    1.1464 H   0  0  0  0  0  0  0  0  0  0  0  0
    0.1765    9.1035    0.6576 H   0  0  0  0  0  0  0  0  0  0  0  0
    1.0124    9.0513   -0.9324 H   0  0  0  0  0  0  0  0  0  0  0  0
    1.9619    8.9229    0.6039 H   0  0  0  0  0  0  0  0  0  0  0  0
    2.4833    7.2578   -2.4973 H   0  0  0  0  0  0  0  0  0  0  0  0
    4.2688    7.6203   -0.0528 H   0  0  0  0  0  0  0  0  0  0  0  0
    4.5844    8.9447   -2.8020 H   0  0  0  0  0  0  0  0  0  0  0  0
    5.3498    9.4010   -1.2362 H   0  0  0  0  0  0  0  0  0  0  0  0
    3.5727    9.6299   -1.4863 H   0  0  0  0  0  0  0  0  0  0  0  0
    7.0898    5.6695   -1.4268 H   0  0  0  0  0  0  0  0  0  0  0  0
    5.0832    5.7099    0.8412 H   0  0  0  0  0  0  0  0  0  0  0  0
    6.3411    7.9489    0.9042 H   0  0  0  0  0  0  0  0  0  0  0  0
    7.8813    7.0385    1.0268 H   0  0  0  0  0  0  0  0  0  0  0  0
    6.6559    6.9166    2.3424 H   0  0  0  0  0  0  0  0  0  0  0  0
    6.9361    3.2113   -0.7179 H   0  0  0  0  0  0  0  0  0  0  0  0
    9.0923    2.6171    0.8651 H   0  0  0  0  0  0  0  0  0  0  0  0
    9.5212    4.9006    1.5769 H   0  0  0  0  0  0  0  0  0  0  0  0
   10.8500    4.4350    0.4627 H   0  0  0  0  0  0  0  0  0  0  0  0
    9.5224    5.4980   -0.1296 H   0  0  0  0  0  0  0  0  0  0  0  0
   10.3576    1.4737   -2.4907 H   0  0  0  0  0  0  0  0  0  0  0  0
    9.6592    0.6007    0.2254 H   0  0  0  0  0  0  0  0  0  0  0  0
   12.0980    0.5272    1.0640 H   0  0  0  0  0  0  0  0  0  0  0  0
   11.4464    2.1897    0.9181 H   0  0  0  0  0  0  0  0  0  0  0  0
   12.5574    1.5574   -0.3519 H   0  0  0  0  0  0  0  0  0  0  0  0
   10.6332   -2.7026   -1.0253 H   0  0  0  0  0  0  0  0  0  0  0  0
   10.2112   -1.0715    1.5171 H   0  0  0  0  0  0  0  0  0  0  0  0
   10.9174   -4.0016    1.0416 H   0  0  0  0  0  0  0  0  0  0  0  0
   11.8388   -2.7242    1.8770 H   0  0  0  0  0  0  0  0  0  0  0  0
   10.3217   -3.3400    2.6237 H   0  0  0  0  0  0  0  0  0  0  0  0
    7.1276   -2.9667   -0.5216 H   0  0  0  0  0  0  0  0  0  0  0  0
    8.8722   -4.8688    1.0857 H   0  0  0  0  0  0  0  0  0  0  0  0
    8.4378   -4.8218   -1.9602 H   0  0  0  0  0  0  0  0  0  0  0  0
    9.9802   -4.8942   -1.0421 H   0  0  0  0  0  0  0  0  0  0  0  0
    8.9040   -6.3236   -1.0732 H   0  0  0  0  0  0  0  0  0  0  0  0
    6.1161   -5.3849   -1.4918 H   0  0  0  0  0  0  0  0  0  0  0  0
    4.7243   -7.1373    0.4169 H   0  0  0  0  0  0  0  0  0  0  0  0
    6.8958   -8.2493    0.6631 H   0  0  0  0  0  0  0  0  0  0  0  0
    7.1421   -8.2888   -1.1266 H   0  0  0  0  0  0  0  0  0  0  0  0
    5.8723   -9.3146   -0.3572 H   0  0  0  0  0  0  0  0  0  0  0  0
    2.6810   -7.9247   -2.5923 H   0  0  0  0  0  0  0  0  0  0  0  0
    2.4072   -7.4307    0.2580 H   0  0  0  0  0  0  0  0  0  0  0  0
    2.3411  -10.0838    0.7958 H   0  0  0  0  0  0  0  0  0  0  0  0
    3.8535   -9.1676    0.9368 H   0  0  0  0  0  0  0  0  0  0  0  0
    3.5371  -10.1611   -0.5476 H   0  0  0  0  0  0  0  0  0  0  0  0
   -1.0957   -8.5020   -0.5559 H   0  0  0  0  0  0  0  0  0  0  0  0
   -1.3400   -6.9856    1.0928 H   0  0  0  0  0  0  0  0  0  0  0  0
    1.0623   -7.0204    4.0791 H   0  0  0  0  0  0  0  0  0  0  0  0
    0.4650   -5.6389    3.1165 H   0  0  0  0  0  0  0  0  0  0  0  0
    0.3144   -5.7099   -0.7874 H   0  0  0  0  0  0  0  0  0  0  0  0
    1.2804   -5.5174    0.7036 H   0  0  0  0  0  0  0  0  0  0  0  0
   -1.6572   -4.0740   -1.3801 H   0  0  0  0  0  0  0  0  0  0  0  0
   -2.2700   -5.5897   -0.6548 H   0  0  0  0  0  0  0  0  0  0  0  0
  1  2  1  0
  2  3  2  0
  2  4  1  0
  4  5  1  0
  5  6  1  0
  6  7  1  0
  7  8  1  0
  8  9  1  0
  9 10  1  0
 10 11  2  0
 11 12  1  0
 12 13  2  0
 13 14  1  0
 13 15  1  0
 15 16  1  0
 16 17  1  0
 17 18  1  0
 18 19  1  0
 19 20  1  0
 20 21  2  0
 20 22  1  0
 22 23  1  0
 22 24  1  0
 24 25  1  0
 25 26  2  0
 25 27  1  0
 27 28  1  0
 27 29  1  0
 29 30  1  0
 30 31  2  0
 30 32  1  0
 32 33  1  0
 32 34  1  0
 34 35  1  0
 35 36  2  0
 18 37  1  0
 37 38  2  0
 37 39  1  0
 39 40  1  0
 40 41  1  0
 40 42  1  0
 42 43  2  0
 42 44  1  0
 44 45  1  0
 45 46  1  0
 45 47  1  0
 47 48  2  0
 47 49  1  0
 49 50  1  0
 50 51  1  0
 50 52  1  0
 52 53  2  0
 52 54  1  0
 54 55  1  0
 55 56  1  0
 55 57  1  0
 57 58  2  0
 57 59  1  0
 59 60  1  0
 60 61  1  0
 60 62  1  0
 62 63  2  0
 62 64  1  0
 64 65  1  0
 65 66  1  0
 65 67  1  0
 67 68  2  0
 67 69  1  0
 69 70  1  0
 70 71  1  0
 70 72  1  0
 72 73  2  0
 72 74  1  0
 74 75  1  0
 75 76  1  0
 75 77  1  0
 77 78  2  0
 77 79  1  0
 79 80  1  0
 80 81  1  0
 80 82  1  0
 82 83  2  0
 82 84  1  0
 84 85  1  0
 85 86  1  0
 85 87  1  0
 87 88  2  0
 87 89  1  0
 89 90  1  0
 90 91  1  0
 91 92  1  0
 91 93  2  0
 90 94  1  0
 94 95  1  0
 95 96  1  0
 35  5  1  0
 14  9  2  0
 96 11  1  0
  1 97  1  0
  1 98  1  0
  1 99  1  0
  4100  1  0
  5101  1  6
  6102  1  0
  6103  1  0
  8104  1  0
  8105  1  0
 10106  1  0
 12107  1  0
 14108  1  0
 15109  1  0
 15110  1  0
 17111  1  0
 17112  1  0
 18113  1  6
 19114  1  0
 22115  1  1
 23116  1  0
 23117  1  0
 23118  1  0
 24119  1  0
 27120  1  1
 28121  1  0
 28122  1  0
 28123  1  0
 29124  1  0
 32125  1  1
 33126  1  0
 33127  1  0
 33128  1  0
 34129  1  0
 39130  1  0
 40131  1  1
 41132  1  0
 41133  1  0
 41134  1  0
 44135  1  0
 45136  1  1
 46137  1  0
 46138  1  0
 46139  1  0
 49140  1  0
 50141  1  1
 51142  1  0
 51143  1  0
 51144  1  0
 54145  1  0
 55146  1  1
 56147  1  0
 56148  1  0
 56149  1  0
 59150  1  0
 60151  1  1
 61152  1  0
 61153  1  0
 61154  1  0
 64155  1  0
 65156  1  1
 66157  1  0
 66158  1  0
 66159  1  0
 69160  1  0
 70161  1  1
 71162  1  0
 71163  1  0
 71164  1  0
 74165  1  0
 75166  1  1
 76167  1  0
 76168  1  0
 76169  1  0
 79170  1  0
 80171  1  1
 81172  1  0
 81173  1  0
 81174  1  0
 84175  1  0
 85176  1  1
 86177  1  0
 86178  1  0
 86179  1  0
 89180  1  0
 90181  1  1
 92182  1  0
 92183  1  0
 94184  1  0
 94185  1  0
 96186  1  0
 96187  1  0
M  END
