
     RDKit          3D

127129  0  0  0  0  0  0  0  0999 V2000
   -8.9747    4.8065   -0.8688 C   0  0  0  0  0  0  0  0  0  0  0  0
   -7.6097    4.2044   -0.9242 C   0  0  0  0  0  0  0  0  0  0  0  0
   -7.2533    3.5708   -1.9505 O   0  0  0  0  0  0  0  0  0  0  0  0
   -6.7209    4.3542    0.1916 N   0  0  0  0  0  0  0  0  0  0  0  0
   -5.5784    3.4653    0.4137 C   0  0  1  0  0  0  0  0  0  0  0  0
   -4.3347    4.2820    0.8082 C   0  0  0  0  0  0  0  0  0  0  0  0
   -3.6874    5.2679   -0.6072 S   0  0  0  0  0  0  0  0  0  0  0  0
   -2.8808    3.9141   -1.5602 C   0  0  0  0  0  0  0  0  0  0  0  0
   -1.9404    3.1073   -0.7063 C   0  0  0  0  0  0  0  0  0  0  0  0
   -0.8254    3.7192   -0.1123 C   0  0  0  0  0  0  0  0  0  0  0  0
    0.0044    2.9980    0.7656 C   0  0  0  0  0  0  0  0  0  0  0  0
   -0.3389    1.6732    1.0965 C   0  0  0  0  0  0  0  0  0  0  0  0
   -1.4412    1.0403    0.4929 C   0  0  0  0  0  0  0  0  0  0  0  0
   -2.2239    1.7622   -0.4222 C   0  0  0  0  0  0  0  0  0  0  0  0
   -1.9327   -0.3147    0.9430 C   0  0  0  0  0  0  0  0  0  0  0  0
   -0.6290   -1.4893    1.4663 S   0  0  0  0  0  0  0  0  0  0  0  0
    0.3805   -1.5559   -0.0721 C   0  0  0  0  0  0  0  0  0  0  0  0
    0.6018   -2.9803   -0.6517 C   0  0  2  0  0  0  0  0  0  0  0  0
   -0.5806   -3.5928   -1.2825 N   0  0  0  0  0  0  0  0  0  0  0  0
   -1.8498   -2.9574   -1.5204 C   0  0  0  0  0  0  0  0  0  0  0  0
   -1.8953   -1.8244   -2.0771 O   0  0  0  0  0  0  0  0  0  0  0  0
   -3.1439   -3.6468   -1.1562 C   0  0  1  0  0  0  0  0  0  0  0  0
   -3.1422   -5.1214   -1.5698 C   0  0  0  0  0  0  0  0  0  0  0  0
   -3.3721   -3.5365    0.2815 N   0  0  0  0  0  0  0  0  0  0  0  0
   -4.5752   -3.0032    0.8675 C   0  0  0  0  0  0  0  0  0  0  0  0
   -4.4956   -2.3890    1.9659 O   0  0  0  0  0  0  0  0  0  0  0  0
   -5.9429   -3.2441    0.2627 C   0  0  1  0  0  0  0  0  0  0  0  0
   -6.6752   -4.3139    1.0802 C   0  0  0  0  0  0  0  0  0  0  0  0
   -6.7266   -2.0024    0.2322 N   0  0  0  0  0  0  0  0  0  0  0  0
   -6.2108   -0.7755   -0.3181 C   0  0  0  0  0  0  0  0  0  0  0  0
   -5.1888   -0.8046   -1.0575 O   0  0  0  0  0  0  0  0  0  0  0  0
   -6.8044    0.5652    0.0449 C   0  0  1  0  0  0  0  0  0  0  0  0
   -8.3200    0.5213    0.2740 C   0  0  0  0  0  0  0  0  0  0  0  0
   -6.1324    1.0779    1.2437 N   0  0  0  0  0  0  0  0  0  0  0  0
   -5.9185    2.4762    1.5086 C   0  0  0  0  0  0  0  0  0  0  0  0
   -6.0076    2.8849    2.6995 O   0  0  0  0  0  0  0  0  0  0  0  0
    1.1330   -3.9570    0.3873 C   0  0  0  0  0  0  0  0  0  0  0  0
    0.4235   -4.2151    1.4016 O   0  0  0  0  0  0  0  0  0  0  0  0
    2.3444   -4.7105    0.2048 N   0  0  0  0  0  0  0  0  0  0  0  0
    3.1389   -4.7585   -1.0308 C   0  0  2  0  0  0  0  0  0  0  0  0
    4.0093   -6.0201   -1.0646 C   0  0  0  0  0  0  0  0  0  0  0  0
    4.0053   -3.5290   -1.1951 C   0  0  0  0  0  0  0  0  0  0  0  0
    4.4219   -3.2484   -2.3573 O   0  0  0  0  0  0  0  0  0  0  0  0
    4.3574   -2.6644   -0.1033 N   0  0  0  0  0  0  0  0  0  0  0  0
    4.8833   -3.1499    1.1786 C   0  0  2  0  0  0  0  0  0  0  0  0
    4.5116   -2.1842    2.3074 C   0  0  0  0  0  0  0  0  0  0  0  0
    6.3733   -3.4246    1.1040 C   0  0  0  0  0  0  0  0  0  0  0  0
    6.7524   -4.6040    0.8917 O   0  0  0  0  0  0  0  0  0  0  0  0
    7.3693   -2.4213    1.3690 N   0  0  0  0  0  0  0  0  0  0  0  0
    7.3939   -1.1104    0.7126 C   0  0  2  0  0  0  0  0  0  0  0  0
    8.4619   -1.1225   -0.3884 C   0  0  0  0  0  0  0  0  0  0  0  0
    7.6570   -0.0072    1.7138 C   0  0  0  0  0  0  0  0  0  0  0  0
    8.0179   -0.3116    2.8844 O   0  0  0  0  0  0  0  0  0  0  0  0
    7.5177    1.3846    1.3735 N   0  0  0  0  0  0  0  0  0  0  0  0
    6.7489    1.9026    0.2355 C   0  0  2  0  0  0  0  0  0  0  0  0
    7.5894    2.9504   -0.5057 C   0  0  0  0  0  0  0  0  0  0  0  0
    5.4323    2.4517    0.7283 C   0  0  0  0  0  0  0  0  0  0  0  0
    4.7308    1.7650    1.5182 O   0  0  0  0  0  0  0  0  0  0  0  0
    4.9510    3.7264    0.2919 N   0  0  0  0  0  0  0  0  0  0  0  0
    4.2382    3.8519   -0.9849 C   0  0  2  0  0  0  0  0  0  0  0  0
    4.6069    5.1477   -1.6634 C   0  0  0  0  0  0  0  0  0  0  0  0
    5.0691    5.1436   -3.0138 N   0  0  0  0  0  0  0  0  0  0  0  0
    4.5249    6.2383   -1.0416 O   0  0  0  0  0  0  0  0  0  0  0  0
    2.7170    3.7058   -0.7861 C   0  0  0  0  0  0  0  0  0  0  0  0
    2.0509    4.8894    0.4433 S   0  0  0  0  0  0  0  0  0  0  0  0
    1.1598    3.6672    1.4777 C   0  0  0  0  0  0  0  0  0  0  0  0
   -9.5314    4.3658   -0.0101 H   0  0  0  0  0  0  0  0  0  0  0  0
   -9.5498    4.6057   -1.7999 H   0  0  0  0  0  0  0  0  0  0  0  0
   -8.8974    5.9045   -0.7158 H   0  0  0  0  0  0  0  0  0  0  0  0
   -7.0420    4.9417    0.9937 H   0  0  0  0  0  0  0  0  0  0  0  0
   -5.3234    2.9134   -0.5070 H   0  0  0  0  0  0  0  0  0  0  0  0
   -4.5937    5.0056    1.6213 H   0  0  0  0  0  0  0  0  0  0  0  0
   -3.5404    3.6213    1.2210 H   0  0  0  0  0  0  0  0  0  0  0  0
   -3.6567    3.2758   -2.0331 H   0  0  0  0  0  0  0  0  0  0  0  0
   -2.2979    4.3678   -2.3871 H   0  0  0  0  0  0  0  0  0  0  0  0
   -0.6248    4.7608   -0.3214 H   0  0  0  0  0  0  0  0  0  0  0  0
    0.2473    1.1458    1.8415 H   0  0  0  0  0  0  0  0  0  0  0  0
   -3.0923    1.2995   -0.8731 H   0  0  0  0  0  0  0  0  0  0  0  0
   -2.6102   -0.1630    1.8104 H   0  0  0  0  0  0  0  0  0  0  0  0
   -2.5390   -0.7909    0.1501 H   0  0  0  0  0  0  0  0  0  0  0  0
   -0.0336   -0.8825   -0.8463 H   0  0  0  0  0  0  0  0  0  0  0  0
    1.3742   -1.1357    0.1890 H   0  0  0  0  0  0  0  0  0  0  0  0
    1.3526   -2.8556   -1.4480 H   0  0  0  0  0  0  0  0  0  0  0  0
   -0.4878   -4.5953   -1.5642 H   0  0  0  0  0  0  0  0  0  0  0  0
   -3.9543   -3.1424   -1.7253 H   0  0  0  0  0  0  0  0  0  0  0  0
   -2.8519   -5.2237   -2.6372 H   0  0  0  0  0  0  0  0  0  0  0  0
   -2.4376   -5.7085   -0.9399 H   0  0  0  0  0  0  0  0  0  0  0  0
   -4.1595   -5.5459   -1.4332 H   0  0  0  0  0  0  0  0  0  0  0  0
   -2.5798   -3.7558    0.9266 H   0  0  0  0  0  0  0  0  0  0  0  0
   -5.8581   -3.6357   -0.7764 H   0  0  0  0  0  0  0  0  0  0  0  0
   -7.6650   -4.5337    0.6197 H   0  0  0  0  0  0  0  0  0  0  0  0
   -6.8398   -3.9546    2.1204 H   0  0  0  0  0  0  0  0  0  0  0  0
   -6.0872   -5.2565    1.1020 H   0  0  0  0  0  0  0  0  0  0  0  0
   -7.7667   -2.0755    0.3645 H   0  0  0  0  0  0  0  0  0  0  0  0
   -6.6349    1.2355   -0.8193 H   0  0  0  0  0  0  0  0  0  0  0  0
   -8.5616   -0.0602    1.1930 H   0  0  0  0  0  0  0  0  0  0  0  0
   -8.7078    1.5560    0.4153 H   0  0  0  0  0  0  0  0  0  0  0  0
   -8.8371    0.0765   -0.6055 H   0  0  0  0  0  0  0  0  0  0  0  0
   -6.0555    0.4240    2.0599 H   0  0  0  0  0  0  0  0  0  0  0  0
    2.5801   -5.3829    0.9710 H   0  0  0  0  0  0  0  0  0  0  0  0
    2.4420   -4.8279   -1.8936 H   0  0  0  0  0  0  0  0  0  0  0  0
    3.3730   -6.9279   -0.9850 H   0  0  0  0  0  0  0  0  0  0  0  0
    4.5707   -6.0783   -2.0238 H   0  0  0  0  0  0  0  0  0  0  0  0
    4.7378   -6.0193   -0.2237 H   0  0  0  0  0  0  0  0  0  0  0  0
    4.4593   -1.6502   -0.3372 H   0  0  0  0  0  0  0  0  0  0  0  0
    4.4043   -4.1078    1.4403 H   0  0  0  0  0  0  0  0  0  0  0  0
    4.8848   -2.5665    3.2817 H   0  0  0  0  0  0  0  0  0  0  0  0
    4.9242   -1.1693    2.1314 H   0  0  0  0  0  0  0  0  0  0  0  0
    3.4080   -2.1032    2.3659 H   0  0  0  0  0  0  0  0  0  0  0  0
    8.2589   -2.7525    1.8142 H   0  0  0  0  0  0  0  0  0  0  0  0
    6.4127   -0.9276    0.2452 H   0  0  0  0  0  0  0  0  0  0  0  0
    8.4597   -0.1710   -0.9569 H   0  0  0  0  0  0  0  0  0  0  0  0
    9.4713   -1.2813    0.0480 H   0  0  0  0  0  0  0  0  0  0  0  0
    8.2557   -1.9523   -1.0993 H   0  0  0  0  0  0  0  0  0  0  0  0
    7.8296    2.0796    2.0889 H   0  0  0  0  0  0  0  0  0  0  0  0
    6.5215    1.1049   -0.4934 H   0  0  0  0  0  0  0  0  0  0  0  0
    8.5658    2.5095   -0.8042 H   0  0  0  0  0  0  0  0  0  0  0  0
    7.0703    3.2847   -1.4282 H   0  0  0  0  0  0  0  0  0  0  0  0
    7.7791    3.8306    0.1445 H   0  0  0  0  0  0  0  0  0  0  0  0
    4.8113    4.4618    1.0231 H   0  0  0  0  0  0  0  0  0  0  0  0
    4.5540    3.0177   -1.6487 H   0  0  0  0  0  0  0  0  0  0  0  0
    5.4766    6.0032   -3.4360 H   0  0  0  0  0  0  0  0  0  0  0  0
    5.0095    4.2743   -3.5871 H   0  0  0  0  0  0  0  0  0  0  0  0
    2.5104    2.6569   -0.4868 H   0  0  0  0  0  0  0  0  0  0  0  0
    2.2025    3.8892   -1.7523 H   0  0  0  0  0  0  0  0  0  0  0  0
    0.7565    4.1883    2.3706 H   0  0  0  0  0  0  0  0  0  0  0  0
    1.8889    2.9084    1.8322 H   0  0  0  0  0  0  0  0  0  0  0  0
  1  2  1  0
  2  3  2  0
  2  4  1  0
  4  5  1  0
  5  6  1  0
  6  7  1  0
  7  8  1  0
  8  9  1  0
  9 10  1  0
 10 11  2  0
 11 12  1  0
 12 13  2  0
 13 14  1  0
 13 15  1  0
 15 16  1  0
 16 17  1  0
 17 18  1  0
 18 19  1  0
 19 20  1  0
 20 21  2  0
 20 22  1  0
 22 23  1  0
 22 24  1  0
 24 25  1  0
 25 26  2  0
 25 27  1  0
 27 28  1  0
 27 29  1  0
 29 30  1  0
 30 31  2  0
 30 32  1  0
 32 33  1  0
 32 34  1  0
 34 35  1  0
 35 36  2  0
 18 37  1  0
 37 38  2  0
 37 39  1  0
 39 40  1  0
 40 41  1  0
 40 42  1  0
 42 43  2  0
 42 44  1  0
 44 45  1  0
 45 46  1  0
 45 47  1  0
 47 48  2  0
 47 49  1  0
 49 50  1  0
 50 51  1  0
 50 52  1  0
 52 53  2  0
 52 54  1  0
 54 55  1  0
 55 56  1  0
 55 57  1  0
 57 58  2  0
 57 59  1  0
 59 60  1  0
 60 61  1  0
 61 62  1  0
 61 63  2  0
 60 64  1  0
 64 65  1  0
 65 66  1  0
 35  5  1  0
 14  9  2  0
 66 11  1  0
  1 67  1  0
  1 68  1  0
  1 69  1  0
  4 70  1  0
  5 71  1  6
  6 72  1  0
  6 73  1  0
  8 74  1  0
  8 75  1  0
 10 76  1  0
 12 77  1  0
 14 78  1  0
 15 79  1  0
 15 80  1  0
 17 81  1  0
 17 82  1  0
 18 83  1  6
 19 84  1  0
 22 85  1  6
 23 86  1  0
 23 87  1  0
 23 88  1  0
 24 89  1  0
 27 90  1  6
 28 91  1  0
 28 92  1  0
 28 93  1  0
 29 94  1  0
 32 95  1  6
 33 96  1  0
 33 97  1  0
 33 98  1  0
 34 99  1  0
 39100  1  0
 40101  1  6
 41102  1  0
 41103  1  0
 41104  1  0
 44105  1  0
 45106  1  1
 46107  1  0
 46108  1  0
 46109  1  0
 49110  1  0
 50111  1  6
 51112  1  0
 51113  1  0
 51114  1  0
 54115  1  0
 55116  1  6
 56117  1  0
 56118  1  0
 56119  1  0
 59120  1  0
 60121  1  6
 62122  1  0
 62123  1  0
 64124  1  0
 64125  1  0
 66126  1  0
 66127  1  0
M  END
