
     RDKit          3D

137139  0  0  0  0  0  0  0  0999 V2000
    9.2974   -5.7829    0.8548 C   0  0  0  0  0  0  0  0  0  0  0  0
    9.0333   -4.4443    0.2441 C   0  0  0  0  0  0  0  0  0  0  0  0
   10.0178   -3.7529   -0.1482 O   0  0  0  0  0  0  0  0  0  0  0  0
    7.6969   -3.9347    0.1408 N   0  0  0  0  0  0  0  0  0  0  0  0
    7.4265   -2.6128   -0.4416 C   0  0  1  0  0  0  0  0  0  0  0  0
    5.9521   -2.4181   -0.8897 C   0  0  0  0  0  0  0  0  0  0  0  0
    5.0890   -3.9608   -1.3843 S   0  0  0  0  0  0  0  0  0  0  0  0
    4.1988   -4.2299    0.2027 C   0  0  0  0  0  0  0  0  0  0  0  0
    2.7398   -3.8717    0.0975 C   0  0  0  0  0  0  0  0  0  0  0  0
    1.7600   -4.8220    0.4407 C   0  0  0  0  0  0  0  0  0  0  0  0
    0.3999   -4.4774    0.4279 C   0  0  0  0  0  0  0  0  0  0  0  0
    0.0203   -3.1878    0.0373 C   0  0  0  0  0  0  0  0  0  0  0  0
    0.9808   -2.2245   -0.3040 C   0  0  0  0  0  0  0  0  0  0  0  0
    2.3421   -2.5764   -0.2746 C   0  0  0  0  0  0  0  0  0  0  0  0
    0.5168   -0.8795   -0.7962 C   0  0  0  0  0  0  0  0  0  0  0  0
    1.5941    0.5124   -0.2588 S   0  0  0  0  0  0  0  0  0  0  0  0
    0.2504    1.7439   -0.3490 C   0  0  0  0  0  0  0  0  0  0  0  0
    0.7557    3.1850   -0.1831 C   0  0  2  0  0  0  0  0  0  0  0  0
    1.3961    3.3465    1.1258 N   0  0  0  0  0  0  0  0  0  0  0  0
    2.4643    4.2674    1.4122 C   0  0  0  0  0  0  0  0  0  0  0  0
    2.4704    4.8513    2.5274 O   0  0  0  0  0  0  0  0  0  0  0  0
    3.6024    4.5231    0.4334 C   0  0  1  0  0  0  0  0  0  0  0  0
    3.2505    5.6872   -0.5069 C   0  0  0  0  0  0  0  0  0  0  0  0
    4.8179    4.8799    1.1777 N   0  0  0  0  0  0  0  0  0  0  0  0
    6.0271    4.1101    1.2537 C   0  0  0  0  0  0  0  0  0  0  0  0
    6.6408    4.0737    2.3582 O   0  0  0  0  0  0  0  0  0  0  0  0
    6.6281    3.3601    0.0723 C   0  0  1  0  0  0  0  0  0  0  0  0
    6.4655    4.1101   -1.2492 C   0  0  0  0  0  0  0  0  0  0  0  0
    8.0671    3.1571    0.3055 N   0  0  0  0  0  0  0  0  0  0  0  0
    8.6959    1.8742    0.4680 C   0  0  0  0  0  0  0  0  0  0  0  0
    9.6879    1.7814    1.2432 O   0  0  0  0  0  0  0  0  0  0  0  0
    8.3479    0.6984   -0.4131 C   0  0  1  0  0  0  0  0  0  0  0  0
    9.0564    0.8242   -1.7647 C   0  0  0  0  0  0  0  0  0  0  0  0
    8.7560   -0.5499    0.2299 N   0  0  0  0  0  0  0  0  0  0  0  0
    7.7975   -1.5545    0.5574 C   0  0  0  0  0  0  0  0  0  0  0  0
    7.2726   -1.5713    1.7083 O   0  0  0  0  0  0  0  0  0  0  0  0
   -0.3903    4.1740   -0.2823 C   0  0  0  0  0  0  0  0  0  0  0  0
   -0.1548    5.3578   -0.6585 O   0  0  0  0  0  0  0  0  0  0  0  0
   -1.7188    3.8191    0.1404 N   0  0  0  0  0  0  0  0  0  0  0  0
   -2.5254    4.7040    0.9919 C   0  0  2  0  0  0  0  0  0  0  0  0
   -1.7387    5.0741    2.2543 C   0  0  0  0  0  0  0  0  0  0  0  0
   -3.7992    3.9993    1.4106 C   0  0  0  0  0  0  0  0  0  0  0  0
   -3.7160    2.8498    1.9397 O   0  0  0  0  0  0  0  0  0  0  0  0
   -5.0940    4.6128    1.3133 N   0  0  0  0  0  0  0  0  0  0  0  0
   -5.4792    5.5597    0.2560 C   0  0  2  0  0  0  0  0  0  0  0  0
   -5.2714    7.0036    0.7560 C   0  0  0  0  0  0  0  0  0  0  0  0
   -6.9165    5.3211   -0.1746 C   0  0  0  0  0  0  0  0  0  0  0  0
   -7.7059    6.2996   -0.2799 O   0  0  0  0  0  0  0  0  0  0  0  0
   -7.4331    3.9905   -0.4056 N   0  0  0  0  0  0  0  0  0  0  0  0
   -6.6211    2.8242   -0.7772 C   0  0  2  0  0  0  0  0  0  0  0  0
   -6.9449    2.4287   -2.2220 C   0  0  0  0  0  0  0  0  0  0  0  0
   -6.8883    1.6864    0.1875 C   0  0  0  0  0  0  0  0  0  0  0  0
   -7.3554    1.9367    1.3355 O   0  0  0  0  0  0  0  0  0  0  0  0
   -6.5160    0.3389   -0.1329 N   0  0  0  0  0  0  0  0  0  0  0  0
   -7.5109   -0.5959   -0.6728 C   0  0  2  0  0  0  0  0  0  0  0  0
   -8.4557   -1.0789    0.4370 C   0  0  0  0  0  0  0  0  0  0  0  0
   -6.8319   -1.7681   -1.3313 C   0  0  0  0  0  0  0  0  0  0  0  0
   -6.9686   -1.9578   -2.5671 O   0  0  0  0  0  0  0  0  0  0  0  0
   -6.0013   -2.6474   -0.5625 N   0  0  0  0  0  0  0  0  0  0  0  0
   -6.2078   -4.0978   -0.4464 C   0  0  2  0  0  0  0  0  0  0  0  0
   -7.6464   -4.5208   -0.7803 C   0  0  0  0  0  0  0  0  0  0  0  0
   -5.8619   -4.5057    0.9669 C   0  0  0  0  0  0  0  0  0  0  0  0
   -6.5859   -4.0710    1.9050 O   0  0  0  0  0  0  0  0  0  0  0  0
   -4.7065   -5.2925    1.3090 N   0  0  0  0  0  0  0  0  0  0  0  0
   -3.9478   -6.1904    0.4306 C   0  0  1  0  0  0  0  0  0  0  0  0
   -4.8577   -7.2100   -0.2218 C   0  0  0  0  0  0  0  0  0  0  0  0
   -4.4682   -7.9053   -1.4074 N   0  0  0  0  0  0  0  0  0  0  0  0
   -5.9441   -7.5203    0.3429 O   0  0  0  0  0  0  0  0  0  0  0  0
   -3.0589   -5.3846   -0.5525 C   0  0  0  0  0  0  0  0  0  0  0  0
   -1.4039   -6.1452   -0.7522 S   0  0  0  0  0  0  0  0  0  0  0  0
   -0.6513   -5.4922    0.7813 C   0  0  0  0  0  0  0  0  0  0  0  0
    8.3419   -6.2841    1.1175 H   0  0  0  0  0  0  0  0  0  0  0  0
    9.8527   -6.4177    0.1271 H   0  0  0  0  0  0  0  0  0  0  0  0
    9.9030   -5.6621    1.7834 H   0  0  0  0  0  0  0  0  0  0  0  0
    6.9256   -4.4956    0.5549 H   0  0  0  0  0  0  0  0  0  0  0  0
    8.0538   -2.4948   -1.3519 H   0  0  0  0  0  0  0  0  0  0  0  0
    5.3632   -1.8587   -0.1306 H   0  0  0  0  0  0  0  0  0  0  0  0
    5.9623   -1.7681   -1.7969 H   0  0  0  0  0  0  0  0  0  0  0  0
    4.3118   -5.3050    0.4574 H   0  0  0  0  0  0  0  0  0  0  0  0
    4.6651   -3.6502    1.0348 H   0  0  0  0  0  0  0  0  0  0  0  0
    2.0589   -5.8178    0.7464 H   0  0  0  0  0  0  0  0  0  0  0  0
   -1.0270   -2.9393    0.0035 H   0  0  0  0  0  0  0  0  0  0  0  0
    3.0919   -1.8453   -0.5400 H   0  0  0  0  0  0  0  0  0  0  0  0
    0.4738   -0.8954   -1.9063 H   0  0  0  0  0  0  0  0  0  0  0  0
   -0.5113   -0.7107   -0.4208 H   0  0  0  0  0  0  0  0  0  0  0  0
   -0.2673    1.6573   -1.3281 H   0  0  0  0  0  0  0  0  0  0  0  0
   -0.4722    1.5065    0.4631 H   0  0  0  0  0  0  0  0  0  0  0  0
    1.4750    3.3716   -1.0013 H   0  0  0  0  0  0  0  0  0  0  0  0
    0.8562    3.0032    1.9536 H   0  0  0  0  0  0  0  0  0  0  0  0
    3.7717    3.6030   -0.1526 H   0  0  0  0  0  0  0  0  0  0  0  0
    2.3411    5.4735   -1.0927 H   0  0  0  0  0  0  0  0  0  0  0  0
    4.0750    5.8618   -1.2168 H   0  0  0  0  0  0  0  0  0  0  0  0
    3.0874    6.6190    0.0786 H   0  0  0  0  0  0  0  0  0  0  0  0
    4.7660    5.7045    1.8228 H   0  0  0  0  0  0  0  0  0  0  0  0
    6.0983    2.3886    0.0015 H   0  0  0  0  0  0  0  0  0  0  0  0
    5.4324    4.0303   -1.6312 H   0  0  0  0  0  0  0  0  0  0  0  0
    6.7544    5.1774   -1.1409 H   0  0  0  0  0  0  0  0  0  0  0  0
    7.1175    3.6473   -2.0247 H   0  0  0  0  0  0  0  0  0  0  0  0
    8.6459    4.0056    0.4970 H   0  0  0  0  0  0  0  0  0  0  0  0
    7.2552    0.6693   -0.6100 H   0  0  0  0  0  0  0  0  0  0  0  0
    8.7517    1.7642   -2.2747 H   0  0  0  0  0  0  0  0  0  0  0  0
   10.1589    0.8340   -1.6196 H   0  0  0  0  0  0  0  0  0  0  0  0
    8.7882   -0.0345   -2.4146 H   0  0  0  0  0  0  0  0  0  0  0  0
    9.7651   -0.7259    0.4554 H   0  0  0  0  0  0  0  0  0  0  0  0
   -2.1393    2.9310   -0.2177 H   0  0  0  0  0  0  0  0  0  0  0  0
   -2.7399    5.6328    0.4348 H   0  0  0  0  0  0  0  0  0  0  0  0
   -0.8259    5.6474    2.0008 H   0  0  0  0  0  0  0  0  0  0  0  0
   -1.4387    4.1509    2.8028 H   0  0  0  0  0  0  0  0  0  0  0  0
   -2.3637    5.6999    2.9268 H   0  0  0  0  0  0  0  0  0  0  0  0
   -5.8464    4.2526    1.9477 H   0  0  0  0  0  0  0  0  0  0  0  0
   -4.8425    5.3886   -0.6396 H   0  0  0  0  0  0  0  0  0  0  0  0
   -6.0022    7.2490    1.5593 H   0  0  0  0  0  0  0  0  0  0  0  0
   -4.2503    7.1482    1.1679 H   0  0  0  0  0  0  0  0  0  0  0  0
   -5.4097    7.7192   -0.0857 H   0  0  0  0  0  0  0  0  0  0  0  0
   -8.4714    3.8886   -0.4734 H   0  0  0  0  0  0  0  0  0  0  0  0
   -5.5406    3.0640   -0.7414 H   0  0  0  0  0  0  0  0  0  0  0  0
   -6.7367    3.2935   -2.8895 H   0  0  0  0  0  0  0  0  0  0  0  0
   -8.0207    2.1556   -2.3198 H   0  0  0  0  0  0  0  0  0  0  0  0
   -6.3117    1.5756   -2.5521 H   0  0  0  0  0  0  0  0  0  0  0  0
   -5.7359   -0.0643    0.4344 H   0  0  0  0  0  0  0  0  0  0  0  0
   -8.1296   -0.0699   -1.4288 H   0  0  0  0  0  0  0  0  0  0  0  0
   -9.2463   -1.7329    0.0060 H   0  0  0  0  0  0  0  0  0  0  0  0
   -7.8948   -1.6356    1.2193 H   0  0  0  0  0  0  0  0  0  0  0  0
   -8.9519   -0.2101    0.9151 H   0  0  0  0  0  0  0  0  0  0  0  0
   -5.0573   -2.2726   -0.3062 H   0  0  0  0  0  0  0  0  0  0  0  0
   -5.5533   -4.6004   -1.1803 H   0  0  0  0  0  0  0  0  0  0  0  0
   -7.7688   -5.6161   -0.6353 H   0  0  0  0  0  0  0  0  0  0  0  0
   -8.3752   -3.9983   -0.1244 H   0  0  0  0  0  0  0  0  0  0  0  0
   -7.8888   -4.2970   -1.8384 H   0  0  0  0  0  0  0  0  0  0  0  0
   -4.4376   -5.2940    2.3240 H   0  0  0  0  0  0  0  0  0  0  0  0
   -3.2674   -6.7824    1.0878 H   0  0  0  0  0  0  0  0  0  0  0  0
   -5.0951   -8.6413   -1.8035 H   0  0  0  0  0  0  0  0  0  0  0  0
   -3.5854   -7.6831   -1.9213 H   0  0  0  0  0  0  0  0  0  0  0  0
   -3.5154   -5.3444   -1.5652 H   0  0  0  0  0  0  0  0  0  0  0  0
   -2.9512   -4.3305   -0.2204 H   0  0  0  0  0  0  0  0  0  0  0  0
   -1.4085   -5.0250    1.4481 H   0  0  0  0  0  0  0  0  0  0  0  0
   -0.2025   -6.3417    1.3392 H   0  0  0  0  0  0  0  0  0  0  0  0
  1  2  1  0
  2  3  2  0
  2  4  1  0
  4  5  1  0
  5  6  1  0
  6  7  1  0
  7  8  1  0
  8  9  1  0
  9 10  1  0
 10 11  2  0
 11 12  1  0
 12 13  2  0
 13 14  1  0
 13 15  1  0
 15 16  1  0
 16 17  1  0
 17 18  1  0
 18 19  1  0
 19 20  1  0
 20 21  2  0
 20 22  1  0
 22 23  1  0
 22 24  1  0
 24 25  1  0
 25 26  2  0
 25 27  1  0
 27 28  1  0
 27 29  1  0
 29 30  1  0
 30 31  2  0
 30 32  1  0
 32 33  1  0
 32 34  1  0
 34 35  1  0
 35 36  2  0
 18 37  1  0
 37 38  2  0
 37 39  1  0
 39 40  1  0
 40 41  1  0
 40 42  1  0
 42 43  2  0
 42 44  1  0
 44 45  1  0
 45 46  1  0
 45 47  1  0
 47 48  2  0
 47 49  1  0
 49 50  1  0
 50 51  1  0
 50 52  1  0
 52 53  2  0
 52 54  1  0
 54 55  1  0
 55 56  1  0
 55 57  1  0
 57 58  2  0
 57 59  1  0
 59 60  1  0
 60 61  1  0
 60 62  1  0
 62 63  2  0
 62 64  1  0
 64 65  1  0
 65 66  1  0
 66 67  1  0
 66 68  2  0
 65 69  1  0
 69 70  1  0
 70 71  1  0
 35  5  1  0
 14  9  2  0
 71 11  1  0
  1 72  1  0
  1 73  1  0
  1 74  1  0
  4 75  1  0
  5 76  1  6
  6 77  1  0
  6 78  1  0
  8 79  1  0
  8 80  1  0
 10 81  1  0
 12 82  1  0
 14 83  1  0
 15 84  1  0
 15 85  1  0
 17 86  1  0
 17 87  1  0
 18 88  1  6
 19 89  1  0
 22 90  1  6
 23 91  1  0
 23 92  1  0
 23 93  1  0
 24 94  1  0
 27 95  1  6
 28 96  1  0
 28 97  1  0
 28 98  1  0
 29 99  1  0
 32100  1  6
 33101  1  0
 33102  1  0
 33103  1  0
 34104  1  0
 39105  1  0
 40106  1  6
 41107  1  0
 41108  1  0
 41109  1  0
 44110  1  0
 45111  1  6
 46112  1  0
 46113  1  0
 46114  1  0
 49115  1  0
 50116  1  6
 51117  1  0
 51118  1  0
 51119  1  0
 54120  1  0
 55121  1  6
 56122  1  0
 56123  1  0
 56124  1  0
 59125  1  0
 60126  1  6
 61127  1  0
 61128  1  0
 61129  1  0
 64130  1  0
 65131  1  1
 67132  1  0
 67133  1  0
 69134  1  0
 69135  1  0
 71136  1  0
 71137  1  0
M  END
