
     RDKit          3D

127129  0  0  0  0  0  0  0  0999 V2000
    8.7196    3.2809    0.5183 C   0  0  0  0  0  0  0  0  0  0  0  0
    7.3933    3.8734    0.8921 C   0  0  0  0  0  0  0  0  0  0  0  0
    7.3317    5.1023    1.1712 O   0  0  0  0  0  0  0  0  0  0  0  0
    6.2021    3.0791    0.9801 N   0  0  0  0  0  0  0  0  0  0  0  0
    5.9179    1.9310    0.1106 C   0  0  2  0  0  0  0  0  0  0  0  0
    4.7427    2.2192   -0.8672 C   0  0  0  0  0  0  0  0  0  0  0  0
    4.1660    3.9611   -0.8926 S   0  0  0  0  0  0  0  0  0  0  0  0
    2.8099    3.7610    0.3208 C   0  0  0  0  0  0  0  0  0  0  0  0
    1.4950    3.6472   -0.3963 C   0  0  0  0  0  0  0  0  0  0  0  0
    0.9152    4.7854   -0.9773 C   0  0  0  0  0  0  0  0  0  0  0  0
   -0.2815    4.6857   -1.7064 C   0  0  0  0  0  0  0  0  0  0  0  0
   -0.8607    3.4212   -1.9018 C   0  0  0  0  0  0  0  0  0  0  0  0
   -0.3318    2.2877   -1.2707 C   0  0  0  0  0  0  0  0  0  0  0  0
    0.8530    2.4021   -0.5285 C   0  0  0  0  0  0  0  0  0  0  0  0
   -1.0646    0.9743   -1.3441 C   0  0  0  0  0  0  0  0  0  0  0  0
   -0.3348   -0.1170   -2.6202 S   0  0  0  0  0  0  0  0  0  0  0  0
    0.5779   -1.2158   -1.4712 C   0  0  0  0  0  0  0  0  0  0  0  0
   -0.3456   -2.2934   -0.8477 C   0  0  2  0  0  0  0  0  0  0  0  0
   -0.0607   -2.5276    0.5786 N   0  0  0  0  0  0  0  0  0  0  0  0
    1.1107   -3.1475    1.1474 C   0  0  0  0  0  0  0  0  0  0  0  0
    0.9943   -3.7524    2.2503 O   0  0  0  0  0  0  0  0  0  0  0  0
    2.4895   -2.9471    0.5576 C   0  0  1  0  0  0  0  0  0  0  0  0
    3.0665   -1.6185    1.0648 C   0  0  0  0  0  0  0  0  0  0  0  0
    3.3939   -4.0481    0.8990 N   0  0  0  0  0  0  0  0  0  0  0  0
    4.6371   -4.2080    0.2143 C   0  0  0  0  0  0  0  0  0  0  0  0
    4.6394   -4.6035   -0.9852 O   0  0  0  0  0  0  0  0  0  0  0  0
    5.9347   -3.9533    0.9370 C   0  0  1  0  0  0  0  0  0  0  0  0
    6.3272   -5.1868    1.7609 C   0  0  0  0  0  0  0  0  0  0  0  0
    7.0102   -3.6197   -0.0041 N   0  0  0  0  0  0  0  0  0  0  0  0
    7.6989   -2.3565   -0.0166 C   0  0  0  0  0  0  0  0  0  0  0  0
    8.9480   -2.3486    0.1209 O   0  0  0  0  0  0  0  0  0  0  0  0
    6.9891   -1.0473   -0.3022 C   0  0  1  0  0  0  0  0  0  0  0  0
    5.9676   -1.2326   -1.4358 C   0  0  0  0  0  0  0  0  0  0  0  0
    6.3606   -0.5006    0.9143 N   0  0  0  0  0  0  0  0  0  0  0  0
    5.6202    0.7356    0.9900 C   0  0  0  0  0  0  0  0  0  0  0  0
    4.7225    0.8455    1.8661 O   0  0  0  0  0  0  0  0  0  0  0  0
   -0.3559   -3.6037   -1.6005 C   0  0  0  0  0  0  0  0  0  0  0  0
    0.7182   -4.0948   -2.0319 O   0  0  0  0  0  0  0  0  0  0  0  0
   -1.5726   -4.3621   -1.7463 N   0  0  0  0  0  0  0  0  0  0  0  0
   -2.5378   -4.5070   -0.6477 C   0  0  2  0  0  0  0  0  0  0  0  0
   -2.0028   -5.5158    0.3742 C   0  0  0  0  0  0  0  0  0  0  0  0
   -3.8808   -4.9813   -1.1533 C   0  0  0  0  0  0  0  0  0  0  0  0
   -3.9199   -5.8593   -2.0612 O   0  0  0  0  0  0  0  0  0  0  0  0
   -5.1248   -4.5383   -0.5757 N   0  0  0  0  0  0  0  0  0  0  0  0
   -5.3126   -3.3120    0.2149 C   0  0  2  0  0  0  0  0  0  0  0  0
   -4.8592   -3.5181    1.6699 C   0  0  0  0  0  0  0  0  0  0  0  0
   -6.7645   -2.9036    0.1810 C   0  0  0  0  0  0  0  0  0  0  0  0
   -7.5861   -3.4048    0.9931 O   0  0  0  0  0  0  0  0  0  0  0  0
   -7.2280   -2.0156   -0.8346 N   0  0  0  0  0  0  0  0  0  0  0  0
   -7.5922   -0.6341   -0.5146 C   0  0  2  0  0  0  0  0  0  0  0  0
   -8.8968   -0.2570   -1.2258 C   0  0  0  0  0  0  0  0  0  0  0  0
   -6.4749    0.3049   -0.8835 C   0  0  0  0  0  0  0  0  0  0  0  0
   -5.4279   -0.1288   -1.4464 O   0  0  0  0  0  0  0  0  0  0  0  0
   -6.6007    1.7006   -0.6152 N   0  0  0  0  0  0  0  0  0  0  0  0
   -5.7074    2.3838    0.3253 C   0  0  2  0  0  0  0  0  0  0  0  0
   -5.9409    1.8441    1.7401 C   0  0  0  0  0  0  0  0  0  0  0  0
   -5.9832    3.8713    0.2980 C   0  0  0  0  0  0  0  0  0  0  0  0
   -7.1719    4.2686    0.4634 O   0  0  0  0  0  0  0  0  0  0  0  0
   -4.9593    4.8510    0.0484 N   0  0  0  0  0  0  0  0  0  0  0  0
   -3.5272    4.6426    0.2957 C   0  0  2  0  0  0  0  0  0  0  0  0
   -3.2998    4.3625    1.7653 C   0  0  0  0  0  0  0  0  0  0  0  0
   -3.7506    5.2867    2.7545 N   0  0  0  0  0  0  0  0  0  0  0  0
   -2.7611    3.2860    2.1163 O   0  0  0  0  0  0  0  0  0  0  0  0
   -2.7094    5.8704   -0.1478 C   0  0  0  0  0  0  0  0  0  0  0  0
   -2.7295    5.9949   -1.9834 S   0  0  0  0  0  0  0  0  0  0  0  0
   -0.9181    5.9346   -2.2664 C   0  0  0  0  0  0  0  0  0  0  0  0
    8.9703    3.5668   -0.5217 H   0  0  0  0  0  0  0  0  0  0  0  0
    9.5016    3.6655    1.2014 H   0  0  0  0  0  0  0  0  0  0  0  0
    8.7101    2.1725    0.6244 H   0  0  0  0  0  0  0  0  0  0  0  0
    5.4347    3.4323    1.5935 H   0  0  0  0  0  0  0  0  0  0  0  0
    6.8101    1.7139   -0.5138 H   0  0  0  0  0  0  0  0  0  0  0  0
    5.0960    2.0150   -1.9041 H   0  0  0  0  0  0  0  0  0  0  0  0
    3.8876    1.5282   -0.7088 H   0  0  0  0  0  0  0  0  0  0  0  0
    2.9816    2.8853    0.9846 H   0  0  0  0  0  0  0  0  0  0  0  0
    2.7924    4.6497    0.9824 H   0  0  0  0  0  0  0  0  0  0  0  0
    1.3972    5.7481   -0.8627 H   0  0  0  0  0  0  0  0  0  0  0  0
   -1.7500    3.3295   -2.5192 H   0  0  0  0  0  0  0  0  0  0  0  0
    1.2744    1.5395   -0.0421 H   0  0  0  0  0  0  0  0  0  0  0  0
   -1.0835    0.4888   -0.3455 H   0  0  0  0  0  0  0  0  0  0  0  0
   -2.1315    1.1491   -1.6140 H   0  0  0  0  0  0  0  0  0  0  0  0
    1.4097   -1.6665   -2.0445 H   0  0  0  0  0  0  0  0  0  0  0  0
    1.0334   -0.6045   -0.6760 H   0  0  0  0  0  0  0  0  0  0  0  0
   -1.3757   -1.8848   -0.9052 H   0  0  0  0  0  0  0  0  0  0  0  0
   -0.8589   -2.3759    1.2366 H   0  0  0  0  0  0  0  0  0  0  0  0
    2.4145   -2.9173   -0.5409 H   0  0  0  0  0  0  0  0  0  0  0  0
    2.2716   -0.9096    1.3908 H   0  0  0  0  0  0  0  0  0  0  0  0
    3.7421   -1.7914    1.9282 H   0  0  0  0  0  0  0  0  0  0  0  0
    3.6195   -1.1251    0.2465 H   0  0  0  0  0  0  0  0  0  0  0  0
    3.1304   -4.7808    1.6010 H   0  0  0  0  0  0  0  0  0  0  0  0
    5.7778   -3.1175    1.6474 H   0  0  0  0  0  0  0  0  0  0  0  0
    7.3456   -5.0517    2.1675 H   0  0  0  0  0  0  0  0  0  0  0  0
    6.3167   -6.0997    1.1314 H   0  0  0  0  0  0  0  0  0  0  0  0
    5.6197   -5.3181    2.6057 H   0  0  0  0  0  0  0  0  0  0  0  0
    7.4710   -4.4100   -0.5075 H   0  0  0  0  0  0  0  0  0  0  0  0
    7.7523   -0.3214   -0.6582 H   0  0  0  0  0  0  0  0  0  0  0  0
    5.4589   -0.2789   -1.6568 H   0  0  0  0  0  0  0  0  0  0  0  0
    5.2078   -1.9912   -1.1854 H   0  0  0  0  0  0  0  0  0  0  0  0
    6.4942   -1.5318   -2.3723 H   0  0  0  0  0  0  0  0  0  0  0  0
    6.4382   -1.0422    1.8048 H   0  0  0  0  0  0  0  0  0  0  0  0
   -1.5619   -5.1059   -2.4858 H   0  0  0  0  0  0  0  0  0  0  0  0
   -2.6595   -3.5296   -0.1523 H   0  0  0  0  0  0  0  0  0  0  0  0
   -1.7964   -6.4923   -0.1188 H   0  0  0  0  0  0  0  0  0  0  0  0
   -1.0719   -5.1358    0.8321 H   0  0  0  0  0  0  0  0  0  0  0  0
   -2.7465   -5.6770    1.1900 H   0  0  0  0  0  0  0  0  0  0  0  0
   -5.9791   -5.0909   -0.8304 H   0  0  0  0  0  0  0  0  0  0  0  0
   -4.7203   -2.4839   -0.2408 H   0  0  0  0  0  0  0  0  0  0  0  0
   -5.2743   -4.4643    2.0749 H   0  0  0  0  0  0  0  0  0  0  0  0
   -5.2011   -2.6714    2.3016 H   0  0  0  0  0  0  0  0  0  0  0  0
   -3.7582   -3.5564    1.7576 H   0  0  0  0  0  0  0  0  0  0  0  0
   -7.5400   -2.4341   -1.7475 H   0  0  0  0  0  0  0  0  0  0  0  0
   -7.7621   -0.5410    0.5803 H   0  0  0  0  0  0  0  0  0  0  0  0
   -9.2064    0.7758   -0.9570 H   0  0  0  0  0  0  0  0  0  0  0  0
   -9.7112   -0.9527   -0.9228 H   0  0  0  0  0  0  0  0  0  0  0  0
   -8.7702   -0.3224   -2.3292 H   0  0  0  0  0  0  0  0  0  0  0  0
   -7.3034    2.2414   -1.1770 H   0  0  0  0  0  0  0  0  0  0  0  0
   -4.6612    2.1746    0.0257 H   0  0  0  0  0  0  0  0  0  0  0  0
   -5.3431    2.4199    2.4781 H   0  0  0  0  0  0  0  0  0  0  0  0
   -7.0110    1.9183    2.0159 H   0  0  0  0  0  0  0  0  0  0  0  0
   -5.6266    0.7777    1.8018 H   0  0  0  0  0  0  0  0  0  0  0  0
   -5.2895    5.8189   -0.1788 H   0  0  0  0  0  0  0  0  0  0  0  0
   -3.1721    3.7741   -0.3001 H   0  0  0  0  0  0  0  0  0  0  0  0
   -4.1938    6.1914    2.4804 H   0  0  0  0  0  0  0  0  0  0  0  0
   -3.6505    5.0563    3.7691 H   0  0  0  0  0  0  0  0  0  0  0  0
   -3.1538    6.8002    0.2718 H   0  0  0  0  0  0  0  0  0  0  0  0
   -1.6699    5.7976    0.2441 H   0  0  0  0  0  0  0  0  0  0  0  0
   -0.7312    5.9672   -3.3604 H   0  0  0  0  0  0  0  0  0  0  0  0
   -0.4723    6.8448   -1.8221 H   0  0  0  0  0  0  0  0  0  0  0  0
  1  2  1  0
  2  3  2  0
  2  4  1  0
  4  5  1  0
  5  6  1  0
  6  7  1  0
  7  8  1  0
  8  9  1  0
  9 10  1  0
 10 11  2  0
 11 12  1  0
 12 13  2  0
 13 14  1  0
 13 15  1  0
 15 16  1  0
 16 17  1  0
 17 18  1  0
 18 19  1  0
 19 20  1  0
 20 21  2  0
 20 22  1  0
 22 23  1  0
 22 24  1  0
 24 25  1  0
 25 26  2  0
 25 27  1  0
 27 28  1  0
 27 29  1  0
 29 30  1  0
 30 31  2  0
 30 32  1  0
 32 33  1  0
 32 34  1  0
 34 35  1  0
 35 36  2  0
 18 37  1  0
 37 38  2  0
 37 39  1  0
 39 40  1  0
 40 41  1  0
 40 42  1  0
 42 43  2  0
 42 44  1  0
 44 45  1  0
 45 46  1  0
 45 47  1  0
 47 48  2  0
 47 49  1  0
 49 50  1  0
 50 51  1  0
 50 52  1  0
 52 53  2  0
 52 54  1  0
 54 55  1  0
 55 56  1  0
 55 57  1  0
 57 58  2  0
 57 59  1  0
 59 60  1  0
 60 61  1  0
 61 62  1  0
 61 63  2  0
 60 64  1  0
 64 65  1  0
 65 66  1  0
 35  5  1  0
 14  9  2  0
 66 11  1  0
  1 67  1  0
  1 68  1  0
  1 69  1  0
  4 70  1  0
  5 71  1  6
  6 72  1  0
  6 73  1  0
  8 74  1  0
  8 75  1  0
 10 76  1  0
 12 77  1  0
 14 78  1  0
 15 79  1  0
 15 80  1  0
 17 81  1  0
 17 82  1  0
 18 83  1  1
 19 84  1  0
 22 85  1  6
 23 86  1  0
 23 87  1  0
 23 88  1  0
 24 89  1  0
 27 90  1  1
 28 91  1  0
 28 92  1  0
 28 93  1  0
 29 94  1  0
 32 95  1  6
 33 96  1  0
 33 97  1  0
 33 98  1  0
 34 99  1  0
 39100  1  0
 40101  1  1
 41102  1  0
 41103  1  0
 41104  1  0
 44105  1  0
 45106  1  6
 46107  1  0
 46108  1  0
 46109  1  0
 49110  1  0
 50111  1  1
 51112  1  0
 51113  1  0
 51114  1  0
 54115  1  0
 55116  1  6
 56117  1  0
 56118  1  0
 56119  1  0
 59120  1  0
 60121  1  6
 62122  1  0
 62123  1  0
 64124  1  0
 64125  1  0
 66126  1  0
 66127  1  0
M  END
