
     RDKit          3D

127129  0  0  0  0  0  0  0  0999 V2000
    6.9298    3.7703    2.1610 C   0  0  0  0  0  0  0  0  0  0  0  0
    7.1157    4.6586    0.9720 C   0  0  0  0  0  0  0  0  0  0  0  0
    7.6619    5.7886    1.1238 O   0  0  0  0  0  0  0  0  0  0  0  0
    6.6993    4.2611   -0.3451 N   0  0  0  0  0  0  0  0  0  0  0  0
    6.3907    2.8717   -0.7068 C   0  0  1  0  0  0  0  0  0  0  0  0
    5.4859    2.8234   -1.9625 C   0  0  0  0  0  0  0  0  0  0  0  0
    3.8652    2.0422   -1.6241 S   0  0  0  0  0  0  0  0  0  0  0  0
    3.2185    3.3675   -0.5352 C   0  0  0  0  0  0  0  0  0  0  0  0
    1.7275    3.2195   -0.3998 C   0  0  0  0  0  0  0  0  0  0  0  0
    0.8726    4.2268   -0.8796 C   0  0  0  0  0  0  0  0  0  0  0  0
   -0.5201    4.0692   -0.8260 C   0  0  0  0  0  0  0  0  0  0  0  0
   -1.0563    2.8856   -0.3057 C   0  0  0  0  0  0  0  0  0  0  0  0
   -0.2193    1.8922    0.2202 C   0  0  0  0  0  0  0  0  0  0  0  0
    1.1749    2.0685    0.1845 C   0  0  0  0  0  0  0  0  0  0  0  0
   -0.8253    0.6458    0.8038 C   0  0  0  0  0  0  0  0  0  0  0  0
   -0.5177   -0.7811   -0.3020 S   0  0  0  0  0  0  0  0  0  0  0  0
    0.9121   -1.4879    0.6069 C   0  0  0  0  0  0  0  0  0  0  0  0
    0.7191   -2.9783    0.9417 C   0  0  2  0  0  0  0  0  0  0  0  0
    0.8976   -3.8063   -0.2625 N   0  0  0  0  0  0  0  0  0  0  0  0
    2.0520   -4.6208   -0.5521 C   0  0  0  0  0  0  0  0  0  0  0  0
    2.1591   -5.1132   -1.7096 O   0  0  0  0  0  0  0  0  0  0  0  0
    3.1736   -4.8279    0.4406 C   0  0  1  0  0  0  0  0  0  0  0  0
    3.9331   -6.1420    0.1823 C   0  0  0  0  0  0  0  0  0  0  0  0
    4.0552   -3.6571    0.4156 N   0  0  0  0  0  0  0  0  0  0  0  0
    5.2686   -3.5842   -0.3529 C   0  0  0  0  0  0  0  0  0  0  0  0
    6.2727   -4.2646    0.0072 O   0  0  0  0  0  0  0  0  0  0  0  0
    5.3414   -2.7633   -1.6236 C   0  0  1  0  0  0  0  0  0  0  0  0
    4.2500   -1.6929   -1.7348 C   0  0  0  0  0  0  0  0  0  0  0  0
    6.6799   -2.1847   -1.8096 N   0  0  0  0  0  0  0  0  0  0  0  0
    7.4028   -1.4729   -0.7924 C   0  0  0  0  0  0  0  0  0  0  0  0
    8.5307   -1.9092   -0.4239 O   0  0  0  0  0  0  0  0  0  0  0  0
    6.8876   -0.1820   -0.2091 C   0  0  1  0  0  0  0  0  0  0  0  0
    6.4725   -0.3788    1.2506 C   0  0  0  0  0  0  0  0  0  0  0  0
    7.9178    0.8557   -0.3037 N   0  0  0  0  0  0  0  0  0  0  0  0
    7.6790    2.1198   -0.9324 C   0  0  0  0  0  0  0  0  0  0  0  0
    8.5751    2.6253   -1.6636 O   0  0  0  0  0  0  0  0  0  0  0  0
   -0.6164   -3.2469    1.5990 C   0  0  0  0  0  0  0  0  0  0  0  0
   -0.7967   -2.8758    2.7950 O   0  0  0  0  0  0  0  0  0  0  0  0
   -1.6840   -3.8806    0.8730 N   0  0  0  0  0  0  0  0  0  0  0  0
   -2.6838   -4.7558    1.4933 C   0  0  2  0  0  0  0  0  0  0  0  0
   -2.0365   -5.7160    2.5027 C   0  0  0  0  0  0  0  0  0  0  0  0
   -3.3755   -5.5508    0.4054 C   0  0  0  0  0  0  0  0  0  0  0  0
   -2.7566   -6.5061   -0.1383 O   0  0  0  0  0  0  0  0  0  0  0  0
   -4.7147   -5.2660   -0.0248 N   0  0  0  0  0  0  0  0  0  0  0  0
   -5.3617   -3.9453    0.0353 C   0  0  2  0  0  0  0  0  0  0  0  0
   -6.6370   -4.0570    0.8705 C   0  0  0  0  0  0  0  0  0  0  0  0
   -5.6739   -3.4577   -1.3671 C   0  0  0  0  0  0  0  0  0  0  0  0
   -5.8812   -4.3039   -2.2789 O   0  0  0  0  0  0  0  0  0  0  0  0
   -5.7206   -2.0611   -1.7093 N   0  0  0  0  0  0  0  0  0  0  0  0
   -6.0963   -0.9935   -0.7739 C   0  0  2  0  0  0  0  0  0  0  0  0
   -7.6202   -0.8323   -0.7907 C   0  0  0  0  0  0  0  0  0  0  0  0
   -5.4091    0.3051   -1.1274 C   0  0  0  0  0  0  0  0  0  0  0  0
   -4.6002    0.3586   -2.0942 O   0  0  0  0  0  0  0  0  0  0  0  0
   -5.5840    1.4700   -0.3135 N   0  0  0  0  0  0  0  0  0  0  0  0
   -6.6673    2.4358   -0.5378 C   0  0  2  0  0  0  0  0  0  0  0  0
   -6.5689    3.0281   -1.9523 C   0  0  0  0  0  0  0  0  0  0  0  0
   -6.6432    3.4883    0.5494 C   0  0  0  0  0  0  0  0  0  0  0  0
   -6.8996    3.1374    1.7321 O   0  0  0  0  0  0  0  0  0  0  0  0
   -6.3073    4.8603    0.2895 N   0  0  0  0  0  0  0  0  0  0  0  0
   -5.0282    5.4534    0.7038 C   0  0  1  0  0  0  0  0  0  0  0  0
   -4.6160    4.9795    2.0785 C   0  0  0  0  0  0  0  0  0  0  0  0
   -4.9318    5.7586    3.2328 N   0  0  0  0  0  0  0  0  0  0  0  0
   -4.0276    3.8736    2.2256 O   0  0  0  0  0  0  0  0  0  0  0  0
   -3.9650    5.1591   -0.3621 C   0  0  0  0  0  0  0  0  0  0  0  0
   -2.3502    5.9243    0.0405 S   0  0  0  0  0  0  0  0  0  0  0  0
   -1.4294    5.1496   -1.3419 C   0  0  0  0  0  0  0  0  0  0  0  0
    7.3098    4.2640    3.0792 H   0  0  0  0  0  0  0  0  0  0  0  0
    5.8520    3.5478    2.3034 H   0  0  0  0  0  0  0  0  0  0  0  0
    7.4944    2.8227    2.0200 H   0  0  0  0  0  0  0  0  0  0  0  0
    6.8652    4.9462   -1.1185 H   0  0  0  0  0  0  0  0  0  0  0  0
    5.8556    2.3930    0.1323 H   0  0  0  0  0  0  0  0  0  0  0  0
    5.3089    3.8391   -2.3838 H   0  0  0  0  0  0  0  0  0  0  0  0
    5.9638    2.2349   -2.7783 H   0  0  0  0  0  0  0  0  0  0  0  0
    3.4640    4.3601   -0.9787 H   0  0  0  0  0  0  0  0  0  0  0  0
    3.6907    3.3062    0.4696 H   0  0  0  0  0  0  0  0  0  0  0  0
    1.2916    5.1260   -1.3153 H   0  0  0  0  0  0  0  0  0  0  0  0
   -2.1272    2.7331   -0.3016 H   0  0  0  0  0  0  0  0  0  0  0  0
    1.8282    1.3009    0.5817 H   0  0  0  0  0  0  0  0  0  0  0  0
   -1.9316    0.7542    0.8898 H   0  0  0  0  0  0  0  0  0  0  0  0
   -0.4612    0.4856    1.8372 H   0  0  0  0  0  0  0  0  0  0  0  0
    1.1320   -0.9395    1.5454 H   0  0  0  0  0  0  0  0  0  0  0  0
    1.8088   -1.3692   -0.0354 H   0  0  0  0  0  0  0  0  0  0  0  0
    1.4892   -3.2267    1.6985 H   0  0  0  0  0  0  0  0  0  0  0  0
    0.2099   -3.6848   -1.0393 H   0  0  0  0  0  0  0  0  0  0  0  0
    2.7507   -4.9431    1.4600 H   0  0  0  0  0  0  0  0  0  0  0  0
    3.2226   -7.0034    0.2147 H   0  0  0  0  0  0  0  0  0  0  0  0
    4.7044   -6.3046    0.9663 H   0  0  0  0  0  0  0  0  0  0  0  0
    4.4265   -6.1377   -0.8135 H   0  0  0  0  0  0  0  0  0  0  0  0
    3.6651   -2.7579    0.7739 H   0  0  0  0  0  0  0  0  0  0  0  0
    5.1651   -3.4741   -2.4602 H   0  0  0  0  0  0  0  0  0  0  0  0
    4.1604   -1.0972   -0.8084 H   0  0  0  0  0  0  0  0  0  0  0  0
    4.4667   -1.0144   -2.5876 H   0  0  0  0  0  0  0  0  0  0  0  0
    3.2699   -2.1832   -1.9340 H   0  0  0  0  0  0  0  0  0  0  0  0
    7.2594   -2.5865   -2.5817 H   0  0  0  0  0  0  0  0  0  0  0  0
    6.0029    0.1439   -0.7912 H   0  0  0  0  0  0  0  0  0  0  0  0
    5.6431   -1.1078    1.3103 H   0  0  0  0  0  0  0  0  0  0  0  0
    6.1117    0.5850    1.6753 H   0  0  0  0  0  0  0  0  0  0  0  0
    7.3330   -0.7368    1.8607 H   0  0  0  0  0  0  0  0  0  0  0  0
    8.9017    0.6279   -0.0328 H   0  0  0  0  0  0  0  0  0  0  0  0
   -1.8796   -3.5232   -0.0959 H   0  0  0  0  0  0  0  0  0  0  0  0
   -3.4212   -4.1446    2.0569 H   0  0  0  0  0  0  0  0  0  0  0  0
   -2.7617   -6.4993    2.8133 H   0  0  0  0  0  0  0  0  0  0  0  0
   -1.1441   -6.2168    2.0608 H   0  0  0  0  0  0  0  0  0  0  0  0
   -1.7297   -5.1738    3.4167 H   0  0  0  0  0  0  0  0  0  0  0  0
   -5.2281   -6.0396   -0.5116 H   0  0  0  0  0  0  0  0  0  0  0  0
   -4.6810   -3.2081    0.5082 H   0  0  0  0  0  0  0  0  0  0  0  0
   -6.4055   -4.4957    1.8587 H   0  0  0  0  0  0  0  0  0  0  0  0
   -7.3823   -4.7079    0.3585 H   0  0  0  0  0  0  0  0  0  0  0  0
   -7.0894   -3.0618    1.0343 H   0  0  0  0  0  0  0  0  0  0  0  0
   -5.7740   -1.8424   -2.7286 H   0  0  0  0  0  0  0  0  0  0  0  0
   -5.7774   -1.2540    0.2613 H   0  0  0  0  0  0  0  0  0  0  0  0
   -7.9529   -0.2685    0.1014 H   0  0  0  0  0  0  0  0  0  0  0  0
   -8.1126   -1.8305   -0.7551 H   0  0  0  0  0  0  0  0  0  0  0  0
   -7.9522   -0.3187   -1.7110 H   0  0  0  0  0  0  0  0  0  0  0  0
   -4.8619    1.6506    0.4220 H   0  0  0  0  0  0  0  0  0  0  0  0
   -7.6469    1.9237   -0.4688 H   0  0  0  0  0  0  0  0  0  0  0  0
   -5.5954    3.5337   -2.1114 H   0  0  0  0  0  0  0  0  0  0  0  0
   -7.3938    3.7538   -2.1298 H   0  0  0  0  0  0  0  0  0  0  0  0
   -6.6706    2.2242   -2.7068 H   0  0  0  0  0  0  0  0  0  0  0  0
   -6.8035    5.3374   -0.4961 H   0  0  0  0  0  0  0  0  0  0  0  0
   -5.1632    6.5556    0.7457 H   0  0  0  0  0  0  0  0  0  0  0  0
   -4.6939    5.4112    4.1890 H   0  0  0  0  0  0  0  0  0  0  0  0
   -5.3907    6.6958    3.1398 H   0  0  0  0  0  0  0  0  0  0  0  0
   -3.8597    4.0636   -0.4751 H   0  0  0  0  0  0  0  0  0  0  0  0
   -4.3077    5.5781   -1.3386 H   0  0  0  0  0  0  0  0  0  0  0  0
   -2.1049    4.7281   -2.1175 H   0  0  0  0  0  0  0  0  0  0  0  0
   -0.8437    5.9479   -1.8453 H   0  0  0  0  0  0  0  0  0  0  0  0
  1  2  1  0
  2  3  2  0
  2  4  1  0
  4  5  1  0
  5  6  1  0
  6  7  1  0
  7  8  1  0
  8  9  1  0
  9 10  1  0
 10 11  2  0
 11 12  1  0
 12 13  2  0
 13 14  1  0
 13 15  1  0
 15 16  1  0
 16 17  1  0
 17 18  1  0
 18 19  1  0
 19 20  1  0
 20 21  2  0
 20 22  1  0
 22 23  1  0
 22 24  1  0
 24 25  1  0
 25 26  2  0
 25 27  1  0
 27 28  1  0
 27 29  1  0
 29 30  1  0
 30 31  2  0
 30 32  1  0
 32 33  1  0
 32 34  1  0
 34 35  1  0
 35 36  2  0
 18 37  1  0
 37 38  2  0
 37 39  1  0
 39 40  1  0
 40 41  1  0
 40 42  1  0
 42 43  2  0
 42 44  1  0
 44 45  1  0
 45 46  1  0
 45 47  1  0
 47 48  2  0
 47 49  1  0
 49 50  1  0
 50 51  1  0
 50 52  1  0
 52 53  2  0
 52 54  1  0
 54 55  1  0
 55 56  1  0
 55 57  1  0
 57 58  2  0
 57 59  1  0
 59 60  1  0
 60 61  1  0
 61 62  1  0
 61 63  2  0
 60 64  1  0
 64 65  1  0
 65 66  1  0
 35  5  1  0
 14  9  2  0
 66 11  1  0
  1 67  1  0
  1 68  1  0
  1 69  1  0
  4 70  1  0
  5 71  1  1
  6 72  1  0
  6 73  1  0
  8 74  1  0
  8 75  1  0
 10 76  1  0
 12 77  1  0
 14 78  1  0
 15 79  1  0
 15 80  1  0
 17 81  1  0
 17 82  1  0
 18 83  1  1
 19 84  1  0
 22 85  1  1
 23 86  1  0
 23 87  1  0
 23 88  1  0
 24 89  1  0
 27 90  1  6
 28 91  1  0
 28 92  1  0
 28 93  1  0
 29 94  1  0
 32 95  1  6
 33 96  1  0
 33 97  1  0
 33 98  1  0
 34 99  1  0
 39100  1  0
 40101  1  1
 41102  1  0
 41103  1  0
 41104  1  0
 44105  1  0
 45106  1  1
 46107  1  0
 46108  1  0
 46109  1  0
 49110  1  0
 50111  1  1
 51112  1  0
 51113  1  0
 51114  1  0
 54115  1  0
 55116  1  6
 56117  1  0
 56118  1  0
 56119  1  0
 59120  1  0
 60121  1  1
 62122  1  0
 62123  1  0
 64124  1  0
 64125  1  0
 66126  1  0
 66127  1  0
M  END
