
     RDKit          3D

137139  0  0  0  0  0  0  0  0999 V2000
   -8.9668    5.1217    2.2143 C   0  0  0  0  0  0  0  0  0  0  0  0
   -7.7379    4.7037    1.4672 C   0  0  0  0  0  0  0  0  0  0  0  0
   -6.6965    5.4116    1.5471 O   0  0  0  0  0  0  0  0  0  0  0  0
   -7.7496    3.5172    0.6537 N   0  0  0  0  0  0  0  0  0  0  0  0
   -6.5341    2.7960    0.2736 C   0  0  2  0  0  0  0  0  0  0  0  0
   -6.1513    3.1875   -1.1665 C   0  0  0  0  0  0  0  0  0  0  0  0
   -4.5947    2.4059   -1.7518 S   0  0  0  0  0  0  0  0  0  0  0  0
   -3.4277    3.4263   -0.7991 C   0  0  0  0  0  0  0  0  0  0  0  0
   -2.0174    3.0500   -1.1614 C   0  0  0  0  0  0  0  0  0  0  0  0
   -1.1289    4.0117   -1.6652 C   0  0  0  0  0  0  0  0  0  0  0  0
    0.1907    3.6639   -2.0001 C   0  0  0  0  0  0  0  0  0  0  0  0
    0.6095    2.3325   -1.8547 C   0  0  0  0  0  0  0  0  0  0  0  0
   -0.2749    1.3572   -1.3745 C   0  0  0  0  0  0  0  0  0  0  0  0
   -1.5750    1.7257   -0.9954 C   0  0  0  0  0  0  0  0  0  0  0  0
    0.1595   -0.0796   -1.3133 C   0  0  0  0  0  0  0  0  0  0  0  0
    1.1321   -0.4107    0.2049 S   0  0  0  0  0  0  0  0  0  0  0  0
   -0.2734   -0.9867    1.2216 C   0  0  0  0  0  0  0  0  0  0  0  0
   -0.6470   -2.4544    0.8971 C   0  0  2  0  0  0  0  0  0  0  0  0
   -2.0754   -2.5610    0.5721 N   0  0  0  0  0  0  0  0  0  0  0  0
   -2.5521   -3.1089   -0.6683 C   0  0  0  0  0  0  0  0  0  0  0  0
   -1.8588   -2.9781   -1.7181 O   0  0  0  0  0  0  0  0  0  0  0  0
   -3.8679   -3.8489   -0.7536 C   0  0  1  0  0  0  0  0  0  0  0  0
   -3.6739   -5.1833   -1.4752 C   0  0  0  0  0  0  0  0  0  0  0  0
   -4.4108   -4.1085    0.5823 N   0  0  0  0  0  0  0  0  0  0  0  0
   -5.6774   -3.6454    1.0902 C   0  0  0  0  0  0  0  0  0  0  0  0
   -5.9279   -3.8141    2.3126 O   0  0  0  0  0  0  0  0  0  0  0  0
   -6.7350   -3.0059    0.2014 C   0  0  1  0  0  0  0  0  0  0  0  0
   -7.3826   -4.0664   -0.6880 C   0  0  0  0  0  0  0  0  0  0  0  0
   -7.7851   -2.3608    1.0107 N   0  0  0  0  0  0  0  0  0  0  0  0
   -8.4874   -1.1654    0.6361 C   0  0  0  0  0  0  0  0  0  0  0  0
   -9.3417   -0.6970    1.4409 O   0  0  0  0  0  0  0  0  0  0  0  0
   -8.2212   -0.4479   -0.6732 C   0  0  1  0  0  0  0  0  0  0  0  0
   -9.4295    0.3668   -1.1441 C   0  0  0  0  0  0  0  0  0  0  0  0
   -7.0381    0.4141   -0.5963 N   0  0  0  0  0  0  0  0  0  0  0  0
   -6.7757    1.3182    0.4905 C   0  0  0  0  0  0  0  0  0  0  0  0
   -6.7774    0.8847    1.6740 O   0  0  0  0  0  0  0  0  0  0  0  0
   -0.3594   -3.3736    2.0694 C   0  0  0  0  0  0  0  0  0  0  0  0
   -0.9176   -3.1231    3.1771 O   0  0  0  0  0  0  0  0  0  0  0  0
    0.4340   -4.5718    1.9678 N   0  0  0  0  0  0  0  0  0  0  0  0
    1.3064   -4.9267    0.8363 C   0  0  2  0  0  0  0  0  0  0  0  0
    0.4813   -5.6205   -0.2565 C   0  0  0  0  0  0  0  0  0  0  0  0
    2.4001   -5.8806    1.2801 C   0  0  0  0  0  0  0  0  0  0  0  0
    2.1260   -6.7767    2.1228 O   0  0  0  0  0  0  0  0  0  0  0  0
    3.6909   -5.9041    0.6593 N   0  0  0  0  0  0  0  0  0  0  0  0
    4.4052   -4.7165    0.1734 C   0  0  2  0  0  0  0  0  0  0  0  0
    4.1539   -4.5222   -1.3250 C   0  0  0  0  0  0  0  0  0  0  0  0
    5.8795   -4.8882    0.4289 C   0  0  0  0  0  0  0  0  0  0  0  0
    6.4926   -5.8840   -0.0428 O   0  0  0  0  0  0  0  0  0  0  0  0
    6.5921   -3.9671    1.2568 N   0  0  0  0  0  0  0  0  0  0  0  0
    7.1648   -2.7417    0.6897 C   0  0  2  0  0  0  0  0  0  0  0  0
    8.5559   -3.0611    0.1262 C   0  0  0  0  0  0  0  0  0  0  0  0
    7.2401   -1.6593    1.7499 C   0  0  0  0  0  0  0  0  0  0  0  0
    7.3107   -1.9904    2.9669 O   0  0  0  0  0  0  0  0  0  0  0  0
    7.1855   -0.2592    1.4278 N   0  0  0  0  0  0  0  0  0  0  0  0
    7.7192    0.3257    0.1950 C   0  0  2  0  0  0  0  0  0  0  0  0
    9.2246    0.5780    0.3709 C   0  0  0  0  0  0  0  0  0  0  0  0
    6.9318    1.5741   -0.1553 C   0  0  0  0  0  0  0  0  0  0  0  0
    5.7248    1.4323   -0.4929 O   0  0  0  0  0  0  0  0  0  0  0  0
    7.5057    2.8925   -0.1156 N   0  0  0  0  0  0  0  0  0  0  0  0
    6.6898    4.1075   -0.1921 C   0  0  2  0  0  0  0  0  0  0  0  0
    7.5943    5.3462   -0.2239 C   0  0  0  0  0  0  0  0  0  0  0  0
    5.7621    4.1848    0.9979 C   0  0  0  0  0  0  0  0  0  0  0  0
    6.2378    4.0088    2.1525 O   0  0  0  0  0  0  0  0  0  0  0  0
    4.3474    4.4140    0.8632 N   0  0  0  0  0  0  0  0  0  0  0  0
    3.7085    5.1029   -0.2703 C   0  0  2  0  0  0  0  0  0  0  0  0
    4.2921    6.4817   -0.4464 C   0  0  0  0  0  0  0  0  0  0  0  0
    4.4242    7.3699    0.6663 N   0  0  0  0  0  0  0  0  0  0  0  0
    4.6708    6.8600   -1.5870 O   0  0  0  0  0  0  0  0  0  0  0  0
    2.1877    5.2058   -0.0327 C   0  0  0  0  0  0  0  0  0  0  0  0
    1.3186    6.1104   -1.3798 S   0  0  0  0  0  0  0  0  0  0  0  0
    1.1384    4.7039   -2.5366 C   0  0  0  0  0  0  0  0  0  0  0  0
   -9.8025    4.4014    2.0302 H   0  0  0  0  0  0  0  0  0  0  0  0
   -9.2909    6.1280    1.8619 H   0  0  0  0  0  0  0  0  0  0  0  0
   -8.7599    5.1535    3.2993 H   0  0  0  0  0  0  0  0  0  0  0  0
   -8.6734    3.1784    0.2929 H   0  0  0  0  0  0  0  0  0  0  0  0
   -5.7073    3.1008    0.9506 H   0  0  0  0  0  0  0  0  0  0  0  0
   -6.9636    2.8935   -1.8598 H   0  0  0  0  0  0  0  0  0  0  0  0
   -6.0445    4.2909   -1.2407 H   0  0  0  0  0  0  0  0  0  0  0  0
   -3.6152    4.5033   -1.0252 H   0  0  0  0  0  0  0  0  0  0  0  0
   -3.5713    3.2711    0.2950 H   0  0  0  0  0  0  0  0  0  0  0  0
   -1.4677    5.0334   -1.8130 H   0  0  0  0  0  0  0  0  0  0  0  0
    1.6145    2.0532   -2.1323 H   0  0  0  0  0  0  0  0  0  0  0  0
   -2.2565    0.9740   -0.6153 H   0  0  0  0  0  0  0  0  0  0  0  0
   -0.7189   -0.7507   -1.3784 H   0  0  0  0  0  0  0  0  0  0  0  0
    0.7898   -0.3183   -2.2029 H   0  0  0  0  0  0  0  0  0  0  0  0
   -1.1413   -0.3085    1.0832 H   0  0  0  0  0  0  0  0  0  0  0  0
    0.0329   -0.8764    2.2837 H   0  0  0  0  0  0  0  0  0  0  0  0
   -0.0591   -2.7806    0.0234 H   0  0  0  0  0  0  0  0  0  0  0  0
   -2.7632   -2.3457    1.3295 H   0  0  0  0  0  0  0  0  0  0  0  0
   -4.5536   -3.2300   -1.3607 H   0  0  0  0  0  0  0  0  0  0  0  0
   -4.6172   -5.7703   -1.4581 H   0  0  0  0  0  0  0  0  0  0  0  0
   -3.3817   -5.0151   -2.5342 H   0  0  0  0  0  0  0  0  0  0  0  0
   -2.8880   -5.7849   -0.9694 H   0  0  0  0  0  0  0  0  0  0  0  0
   -3.8132   -4.6502    1.2463 H   0  0  0  0  0  0  0  0  0  0  0  0
   -6.2424   -2.2350   -0.4227 H   0  0  0  0  0  0  0  0  0  0  0  0
   -6.6433   -4.5025   -1.3825 H   0  0  0  0  0  0  0  0  0  0  0  0
   -7.8136   -4.8807   -0.0686 H   0  0  0  0  0  0  0  0  0  0  0  0
   -8.1923   -3.6160   -1.2935 H   0  0  0  0  0  0  0  0  0  0  0  0
   -8.1733   -2.8934    1.8217 H   0  0  0  0  0  0  0  0  0  0  0  0
   -8.0506   -1.2161   -1.4602 H   0  0  0  0  0  0  0  0  0  0  0  0
   -9.6803    1.1622   -0.4116 H   0  0  0  0  0  0  0  0  0  0  0  0
  -10.3159   -0.2931   -1.2667 H   0  0  0  0  0  0  0  0  0  0  0  0
   -9.2077    0.8441   -2.1248 H   0  0  0  0  0  0  0  0  0  0  0  0
   -6.4342    0.4537   -1.4502 H   0  0  0  0  0  0  0  0  0  0  0  0
    0.2965   -5.2724    2.7381 H   0  0  0  0  0  0  0  0  0  0  0  0
    1.7643   -4.0023    0.4298 H   0  0  0  0  0  0  0  0  0  0  0  0
    0.0029   -6.5348    0.1505 H   0  0  0  0  0  0  0  0  0  0  0  0
    1.1344   -5.9112   -1.1032 H   0  0  0  0  0  0  0  0  0  0  0  0
   -0.3186   -4.9546   -0.6412 H   0  0  0  0  0  0  0  0  0  0  0  0
    4.1902   -6.8212    0.6710 H   0  0  0  0  0  0  0  0  0  0  0  0
    4.0608   -3.8135    0.7203 H   0  0  0  0  0  0  0  0  0  0  0  0
    4.7332   -3.6526   -1.7014 H   0  0  0  0  0  0  0  0  0  0  0  0
    3.0828   -4.3271   -1.5151 H   0  0  0  0  0  0  0  0  0  0  0  0
    4.4538   -5.4276   -1.8936 H   0  0  0  0  0  0  0  0  0  0  0  0
    7.0548   -4.3745    2.1003 H   0  0  0  0  0  0  0  0  0  0  0  0
    6.5046   -2.3837   -0.1355 H   0  0  0  0  0  0  0  0  0  0  0  0
    8.4988   -3.9452   -0.5476 H   0  0  0  0  0  0  0  0  0  0  0  0
    9.2637   -3.2975    0.9461 H   0  0  0  0  0  0  0  0  0  0  0  0
    8.9520   -2.2224   -0.4712 H   0  0  0  0  0  0  0  0  0  0  0  0
    7.0269    0.3929    2.2290 H   0  0  0  0  0  0  0  0  0  0  0  0
    7.5894   -0.3796   -0.6484 H   0  0  0  0  0  0  0  0  0  0  0  0
    9.4094    1.2802    1.2123 H   0  0  0  0  0  0  0  0  0  0  0  0
    9.7514   -0.3647    0.6113 H   0  0  0  0  0  0  0  0  0  0  0  0
    9.6593    0.9871   -0.5684 H   0  0  0  0  0  0  0  0  0  0  0  0
    8.5432    3.0044   -0.0430 H   0  0  0  0  0  0  0  0  0  0  0  0
    6.1082    4.0846   -1.1385 H   0  0  0  0  0  0  0  0  0  0  0  0
    8.2642    5.3016   -1.1076 H   0  0  0  0  0  0  0  0  0  0  0  0
    6.9973    6.2783   -0.2812 H   0  0  0  0  0  0  0  0  0  0  0  0
    8.2258    5.3890    0.6926 H   0  0  0  0  0  0  0  0  0  0  0  0
    3.7558    4.1794    1.6899 H   0  0  0  0  0  0  0  0  0  0  0  0
    3.8634    4.5044   -1.1870 H   0  0  0  0  0  0  0  0  0  0  0  0
    4.8292    8.3254    0.5350 H   0  0  0  0  0  0  0  0  0  0  0  0
    4.1635    7.0640    1.6290 H   0  0  0  0  0  0  0  0  0  0  0  0
    1.7605    4.1903    0.1083 H   0  0  0  0  0  0  0  0  0  0  0  0
    1.9999    5.7601    0.9090 H   0  0  0  0  0  0  0  0  0  0  0  0
    2.1328    4.2699   -2.7559 H   0  0  0  0  0  0  0  0  0  0  0  0
    0.7321    5.0961   -3.4936 H   0  0  0  0  0  0  0  0  0  0  0  0
  1  2  1  0
  2  3  2  0
  2  4  1  0
  4  5  1  0
  5  6  1  0
  6  7  1  0
  7  8  1  0
  8  9  1  0
  9 10  1  0
 10 11  2  0
 11 12  1  0
 12 13  2  0
 13 14  1  0
 13 15  1  0
 15 16  1  0
 16 17  1  0
 17 18  1  0
 18 19  1  0
 19 20  1  0
 20 21  2  0
 20 22  1  0
 22 23  1  0
 22 24  1  0
 24 25  1  0
 25 26  2  0
 25 27  1  0
 27 28  1  0
 27 29  1  0
 29 30  1  0
 30 31  2  0
 30 32  1  0
 32 33  1  0
 32 34  1  0
 34 35  1  0
 35 36  2  0
 18 37  1  0
 37 38  2  0
 37 39  1  0
 39 40  1  0
 40 41  1  0
 40 42  1  0
 42 43  2  0
 42 44  1  0
 44 45  1  0
 45 46  1  0
 45 47  1  0
 47 48  2  0
 47 49  1  0
 49 50  1  0
 50 51  1  0
 50 52  1  0
 52 53  2  0
 52 54  1  0
 54 55  1  0
 55 56  1  0
 55 57  1  0
 57 58  2  0
 57 59  1  0
 59 60  1  0
 60 61  1  0
 60 62  1  0
 62 63  2  0
 62 64  1  0
 64 65  1  0
 65 66  1  0
 66 67  1  0
 66 68  2  0
 65 69  1  0
 69 70  1  0
 70 71  1  0
 35  5  1  0
 14  9  2  0
 71 11  1  0
  1 72  1  0
  1 73  1  0
  1 74  1  0
  4 75  1  0
  5 76  1  1
  6 77  1  0
  6 78  1  0
  8 79  1  0
  8 80  1  0
 10 81  1  0
 12 82  1  0
 14 83  1  0
 15 84  1  0
 15 85  1  0
 17 86  1  0
 17 87  1  0
 18 88  1  6
 19 89  1  0
 22 90  1  6
 23 91  1  0
 23 92  1  0
 23 93  1  0
 24 94  1  0
 27 95  1  6
 28 96  1  0
 28 97  1  0
 28 98  1  0
 29 99  1  0
 32100  1  6
 33101  1  0
 33102  1  0
 33103  1  0
 34104  1  0
 39105  1  0
 40106  1  6
 41107  1  0
 41108  1  0
 41109  1  0
 44110  1  0
 45111  1  1
 46112  1  0
 46113  1  0
 46114  1  0
 49115  1  0
 50116  1  6
 51117  1  0
 51118  1  0
 51119  1  0
 54120  1  0
 55121  1  6
 56122  1  0
 56123  1  0
 56124  1  0
 59125  1  0
 60126  1  6
 61127  1  0
 61128  1  0
 61129  1  0
 64130  1  0
 65131  1  6
 67132  1  0
 67133  1  0
 69134  1  0
 69135  1  0
 71136  1  0
 71137  1  0
M  END
