
     RDKit          3D

157159  0  0  0  0  0  0  0  0999 V2000
    8.5038   -4.6436   -1.8521 C   0  0  0  0  0  0  0  0  0  0  0  0
    8.9463   -4.8877   -0.4445 C   0  0  0  0  0  0  0  0  0  0  0  0
    9.9631   -5.6050   -0.2438 O   0  0  0  0  0  0  0  0  0  0  0  0
    8.2261   -4.3679    0.6916 N   0  0  0  0  0  0  0  0  0  0  0  0
    7.0931   -3.4390    0.6167 C   0  0  1  0  0  0  0  0  0  0  0  0
    5.8541   -4.0859    1.2617 C   0  0  0  0  0  0  0  0  0  0  0  0
    5.3732   -5.6669    0.4558 S   0  0  0  0  0  0  0  0  0  0  0  0
    4.5008   -5.0003   -1.0102 C   0  0  0  0  0  0  0  0  0  0  0  0
    3.4225   -4.0165   -0.6436 C   0  0  0  0  0  0  0  0  0  0  0  0
    2.4064   -4.3752    0.2532 C   0  0  0  0  0  0  0  0  0  0  0  0
    1.4803   -3.4207    0.6918 C   0  0  0  0  0  0  0  0  0  0  0  0
    1.5750   -2.1024    0.2233 C   0  0  0  0  0  0  0  0  0  0  0  0
    2.5664   -1.7373   -0.6945 C   0  0  0  0  0  0  0  0  0  0  0  0
    3.4838   -2.7024   -1.1298 C   0  0  0  0  0  0  0  0  0  0  0  0
    2.7394   -0.3011   -1.0900 C   0  0  0  0  0  0  0  0  0  0  0  0
    3.7463    0.5489    0.1776 S   0  0  0  0  0  0  0  0  0  0  0  0
    2.3619    1.4255    1.0030 C   0  0  0  0  0  0  0  0  0  0  0  0
    1.9805    2.7204    0.2481 C   0  0  2  0  0  0  0  0  0  0  0  0
    2.4436    3.8821    1.0159 N   0  0  0  0  0  0  0  0  0  0  0  0
    3.5947    4.6752    0.7016 C   0  0  0  0  0  0  0  0  0  0  0  0
    3.6603    5.8473    1.1612 O   0  0  0  0  0  0  0  0  0  0  0  0
    4.7910    4.1331   -0.0532 C   0  0  1  0  0  0  0  0  0  0  0  0
    5.0813    5.0529   -1.2493 C   0  0  0  0  0  0  0  0  0  0  0  0
    5.9241    4.0304    0.8845 N   0  0  0  0  0  0  0  0  0  0  0  0
    7.3159    4.1897    0.5615 C   0  0  0  0  0  0  0  0  0  0  0  0
    8.0114    4.9524    1.2899 O   0  0  0  0  0  0  0  0  0  0  0  0
    7.9700    3.4637   -0.5994 C   0  0  1  0  0  0  0  0  0  0  0  0
    9.4894    3.3148   -0.3928 C   0  0  0  0  0  0  0  0  0  0  0  0
    7.3633    2.1444   -0.8208 N   0  0  0  0  0  0  0  0  0  0  0  0
    7.5140    1.0557    0.1016 C   0  0  0  0  0  0  0  0  0  0  0  0
    7.3630    1.2657    1.3377 O   0  0  0  0  0  0  0  0  0  0  0  0
    7.8030   -0.3453   -0.3972 C   0  0  1  0  0  0  0  0  0  0  0  0
    8.8565   -0.3229   -1.5085 C   0  0  0  0  0  0  0  0  0  0  0  0
    8.2916   -1.1808    0.6997 N   0  0  0  0  0  0  0  0  0  0  0  0
    7.4748   -2.1650    1.3375 C   0  0  0  0  0  0  0  0  0  0  0  0
    7.1928   -2.0164    2.5579 O   0  0  0  0  0  0  0  0  0  0  0  0
    0.4857    2.8060    0.0196 C   0  0  0  0  0  0  0  0  0  0  0  0
   -0.1125    1.8784   -0.5947 O   0  0  0  0  0  0  0  0  0  0  0  0
   -0.2558    3.9559    0.4439 N   0  0  0  0  0  0  0  0  0  0  0  0
   -0.7931    4.9738   -0.4696 C   0  0  2  0  0  0  0  0  0  0  0  0
   -0.2145    4.8583   -1.8906 C   0  0  0  0  0  0  0  0  0  0  0  0
   -0.4720    6.3423    0.0817 C   0  0  0  0  0  0  0  0  0  0  0  0
    0.7302    6.6095    0.3561 O   0  0  0  0  0  0  0  0  0  0  0  0
   -1.4695    7.3500    0.3081 N   0  0  0  0  0  0  0  0  0  0  0  0
   -2.9027    7.2044    0.0171 C   0  0  2  0  0  0  0  0  0  0  0  0
   -3.5489    8.5923   -0.0376 C   0  0  0  0  0  0  0  0  0  0  0  0
   -3.5727    6.3462    1.0760 C   0  0  0  0  0  0  0  0  0  0  0  0
   -2.9587    6.1328    2.1557 O   0  0  0  0  0  0  0  0  0  0  0  0
   -4.8861    5.7796    0.9199 N   0  0  0  0  0  0  0  0  0  0  0  0
   -5.7683    5.9437   -0.2430 C   0  0  2  0  0  0  0  0  0  0  0  0
   -6.9222    6.8819    0.1420 C   0  0  0  0  0  0  0  0  0  0  0  0
   -6.3231    4.6105   -0.7039 C   0  0  0  0  0  0  0  0  0  0  0  0
   -7.1993    4.5957   -1.6146 O   0  0  0  0  0  0  0  0  0  0  0  0
   -5.8797    3.3670   -0.1342 N   0  0  0  0  0  0  0  0  0  0  0  0
   -6.8239    2.2818    0.1407 C   0  0  2  0  0  0  0  0  0  0  0  0
   -7.5701    2.5824    1.4449 C   0  0  0  0  0  0  0  0  0  0  0  0
   -6.0936    0.9639    0.2349 C   0  0  0  0  0  0  0  0  0  0  0  0
   -5.1629    0.8203    1.0740 O   0  0  0  0  0  0  0  0  0  0  0  0
   -6.4120   -0.1266   -0.6424 N   0  0  0  0  0  0  0  0  0  0  0  0
   -7.5168   -1.0713   -0.4116 C   0  0  2  0  0  0  0  0  0  0  0  0
   -8.8675   -0.4087   -0.7046 C   0  0  0  0  0  0  0  0  0  0  0  0
   -7.4668   -1.6295    0.9999 C   0  0  0  0  0  0  0  0  0  0  0  0
   -7.6698   -0.8487    1.9689 O   0  0  0  0  0  0  0  0  0  0  0  0
   -7.1798   -3.0150    1.2854 N   0  0  0  0  0  0  0  0  0  0  0  0
   -7.4471   -4.1431    0.3828 C   0  0  2  0  0  0  0  0  0  0  0  0
   -8.9507   -4.2664    0.1099 C   0  0  0  0  0  0  0  0  0  0  0  0
   -6.9563   -5.4381    1.0076 C   0  0  0  0  0  0  0  0  0  0  0  0
   -7.4214   -5.7715    2.1311 O   0  0  0  0  0  0  0  0  0  0  0  0
   -6.0043   -6.3150    0.3745 N   0  0  0  0  0  0  0  0  0  0  0  0
   -5.3749   -6.0935   -0.9362 C   0  0  2  0  0  0  0  0  0  0  0  0
   -6.3721   -6.3805   -2.0678 C   0  0  0  0  0  0  0  0  0  0  0  0
   -4.1570   -6.9810   -1.0730 C   0  0  0  0  0  0  0  0  0  0  0  0
   -4.2927   -8.1839   -1.4283 O   0  0  0  0  0  0  0  0  0  0  0  0
   -2.8361   -6.4819   -0.8145 N   0  0  0  0  0  0  0  0  0  0  0  0
   -2.5301   -5.5888    0.3072 C   0  0  1  0  0  0  0  0  0  0  0  0
   -2.0929   -6.4063    1.4971 C   0  0  0  0  0  0  0  0  0  0  0  0
   -0.9617   -7.2771    1.4177 N   0  0  0  0  0  0  0  0  0  0  0  0
   -2.7359   -6.3249    2.5772 O   0  0  0  0  0  0  0  0  0  0  0  0
   -1.4493   -4.5814   -0.1084 C   0  0  0  0  0  0  0  0  0  0  0  0
   -1.2413   -3.2867    1.1714 S   0  0  0  0  0  0  0  0  0  0  0  0
    0.4350   -3.7761    1.7171 C   0  0  0  0  0  0  0  0  0  0  0  0
    8.4478   -3.5584   -2.0577 H   0  0  0  0  0  0  0  0  0  0  0  0
    7.5077   -5.1091   -2.0128 H   0  0  0  0  0  0  0  0  0  0  0  0
    9.2221   -5.0985   -2.5718 H   0  0  0  0  0  0  0  0  0  0  0  0
    8.5458   -4.6689    1.6402 H   0  0  0  0  0  0  0  0  0  0  0  0
    6.8438   -3.1842   -0.4291 H   0  0  0  0  0  0  0  0  0  0  0  0
    5.0133   -3.3662    1.2754 H   0  0  0  0  0  0  0  0  0  0  0  0
    6.0776   -4.3285    2.3227 H   0  0  0  0  0  0  0  0  0  0  0  0
    5.2460   -4.5446   -1.6972 H   0  0  0  0  0  0  0  0  0  0  0  0
    4.0395   -5.8534   -1.5497 H   0  0  0  0  0  0  0  0  0  0  0  0
    2.3707   -5.3792    0.6535 H   0  0  0  0  0  0  0  0  0  0  0  0
    0.8830   -1.3557    0.5858 H   0  0  0  0  0  0  0  0  0  0  0  0
    4.2796   -2.4159   -1.8039 H   0  0  0  0  0  0  0  0  0  0  0  0
    1.7461    0.1733   -1.2260 H   0  0  0  0  0  0  0  0  0  0  0  0
    3.2647   -0.2267   -2.0675 H   0  0  0  0  0  0  0  0  0  0  0  0
    2.6963    1.6667    2.0343 H   0  0  0  0  0  0  0  0  0  0  0  0
    1.4992    0.7426    1.1317 H   0  0  0  0  0  0  0  0  0  0  0  0
    2.4365    2.7261   -0.7629 H   0  0  0  0  0  0  0  0  0  0  0  0
    1.9116    4.1495    1.8742 H   0  0  0  0  0  0  0  0  0  0  0  0
    4.5903    3.1227   -0.4493 H   0  0  0  0  0  0  0  0  0  0  0  0
    4.1372    5.2886   -1.7829 H   0  0  0  0  0  0  0  0  0  0  0  0
    5.7338    4.5445   -1.9830 H   0  0  0  0  0  0  0  0  0  0  0  0
    5.5516    5.9997   -0.9151 H   0  0  0  0  0  0  0  0  0  0  0  0
    5.7061    3.9607    1.9079 H   0  0  0  0  0  0  0  0  0  0  0  0
    7.8411    4.0793   -1.5115 H   0  0  0  0  0  0  0  0  0  0  0  0
    9.9276    2.7386   -1.2342 H   0  0  0  0  0  0  0  0  0  0  0  0
    9.9758    4.3145   -0.3761 H   0  0  0  0  0  0  0  0  0  0  0  0
    9.7101    2.7909    0.5591 H   0  0  0  0  0  0  0  0  0  0  0  0
    6.9944    1.9382   -1.7785 H   0  0  0  0  0  0  0  0  0  0  0  0
    6.8601   -0.7682   -0.8104 H   0  0  0  0  0  0  0  0  0  0  0  0
    8.4594    0.1729   -2.4198 H   0  0  0  0  0  0  0  0  0  0  0  0
    9.7731    0.2093   -1.1700 H   0  0  0  0  0  0  0  0  0  0  0  0
    9.1370   -1.3605   -1.7809 H   0  0  0  0  0  0  0  0  0  0  0  0
    9.1529   -0.8680    1.2048 H   0  0  0  0  0  0  0  0  0  0  0  0
   -0.5551    3.9848    1.4478 H   0  0  0  0  0  0  0  0  0  0  0  0
   -1.8878    4.8193   -0.5447 H   0  0  0  0  0  0  0  0  0  0  0  0
    0.8957    4.8908   -1.8699 H   0  0  0  0  0  0  0  0  0  0  0  0
   -0.5383    3.9076   -2.3602 H   0  0  0  0  0  0  0  0  0  0  0  0
   -0.5892    5.6928   -2.5228 H   0  0  0  0  0  0  0  0  0  0  0  0
   -1.1179    8.2737    0.6643 H   0  0  0  0  0  0  0  0  0  0  0  0
   -3.0080    6.7370   -0.9838 H   0  0  0  0  0  0  0  0  0  0  0  0
   -3.5691    9.0534    0.9745 H   0  0  0  0  0  0  0  0  0  0  0  0
   -4.5804    8.5447   -0.4380 H   0  0  0  0  0  0  0  0  0  0  0  0
   -2.9627    9.2561   -0.7161 H   0  0  0  0  0  0  0  0  0  0  0  0
   -5.2960    5.3106    1.7597 H   0  0  0  0  0  0  0  0  0  0  0  0
   -5.2225    6.3836   -1.1014 H   0  0  0  0  0  0  0  0  0  0  0  0
   -7.5221    7.1460   -0.7576 H   0  0  0  0  0  0  0  0  0  0  0  0
   -7.5874    6.3956    0.8871 H   0  0  0  0  0  0  0  0  0  0  0  0
   -6.5276    7.8185    0.5839 H   0  0  0  0  0  0  0  0  0  0  0  0
   -4.9421    3.3375    0.3303 H   0  0  0  0  0  0  0  0  0  0  0  0
   -7.5614    2.2181   -0.6900 H   0  0  0  0  0  0  0  0  0  0  0  0
   -8.1421    3.5285    1.3392 H   0  0  0  0  0  0  0  0  0  0  0  0
   -6.8532    2.6865    2.2869 H   0  0  0  0  0  0  0  0  0  0  0  0
   -8.2895    1.7722    1.6905 H   0  0  0  0  0  0  0  0  0  0  0  0
   -5.7232   -0.3548   -1.3902 H   0  0  0  0  0  0  0  0  0  0  0  0
   -7.4087   -1.8925   -1.1453 H   0  0  0  0  0  0  0  0  0  0  0  0
   -8.8751   -0.0139   -1.7444 H   0  0  0  0  0  0  0  0  0  0  0  0
   -9.6935   -1.1414   -0.6073 H   0  0  0  0  0  0  0  0  0  0  0  0
   -9.0719    0.4246   -0.0074 H   0  0  0  0  0  0  0  0  0  0  0  0
   -6.8465   -3.2169    2.2558 H   0  0  0  0  0  0  0  0  0  0  0  0
   -6.9253   -3.9612   -0.5728 H   0  0  0  0  0  0  0  0  0  0  0  0
   -9.5174   -4.3139    1.0664 H   0  0  0  0  0  0  0  0  0  0  0  0
   -9.3127   -3.4018   -0.4755 H   0  0  0  0  0  0  0  0  0  0  0  0
   -9.1632   -5.1857   -0.4767 H   0  0  0  0  0  0  0  0  0  0  0  0
   -5.7145   -7.1569    0.9238 H   0  0  0  0  0  0  0  0  0  0  0  0
   -5.0395   -5.0386   -1.0214 H   0  0  0  0  0  0  0  0  0  0  0  0
   -6.7575   -7.4193   -1.9938 H   0  0  0  0  0  0  0  0  0  0  0  0
   -5.8736   -6.2526   -3.0529 H   0  0  0  0  0  0  0  0  0  0  0  0
   -7.2371   -5.6906   -2.0270 H   0  0  0  0  0  0  0  0  0  0  0  0
   -2.0402   -7.0010   -1.2496 H   0  0  0  0  0  0  0  0  0  0  0  0
   -3.4357   -5.0090    0.5908 H   0  0  0  0  0  0  0  0  0  0  0  0
   -0.4020   -7.3591    0.5421 H   0  0  0  0  0  0  0  0  0  0  0  0
   -0.6735   -7.8389    2.2521 H   0  0  0  0  0  0  0  0  0  0  0  0
   -0.4952   -5.1031   -0.3365 H   0  0  0  0  0  0  0  0  0  0  0  0
   -1.7735   -4.0709   -1.0378 H   0  0  0  0  0  0  0  0  0  0  0  0
    0.6622   -3.2341    2.6581 H   0  0  0  0  0  0  0  0  0  0  0  0
    0.4439   -4.8588    1.9523 H   0  0  0  0  0  0  0  0  0  0  0  0
  1  2  1  0
  2  3  2  0
  2  4  1  0
  4  5  1  0
  5  6  1  0
  6  7  1  0
  7  8  1  0
  8  9  1  0
  9 10  1  0
 10 11  2  0
 11 12  1  0
 12 13  2  0
 13 14  1  0
 13 15  1  0
 15 16  1  0
 16 17  1  0
 17 18  1  0
 18 19  1  0
 19 20  1  0
 20 21  2  0
 20 22  1  0
 22 23  1  0
 22 24  1  0
 24 25  1  0
 25 26  2  0
 25 27  1  0
 27 28  1  0
 27 29  1  0
 29 30  1  0
 30 31  2  0
 30 32  1  0
 32 33  1  0
 32 34  1  0
 34 35  1  0
 35 36  2  0
 18 37  1  0
 37 38  2  0
 37 39  1  0
 39 40  1  0
 40 41  1  0
 40 42  1  0
 42 43  2  0
 42 44  1  0
 44 45  1  0
 45 46  1  0
 45 47  1  0
 47 48  2  0
 47 49  1  0
 49 50  1  0
 50 51  1  0
 50 52  1  0
 52 53  2  0
 52 54  1  0
 54 55  1  0
 55 56  1  0
 55 57  1  0
 57 58  2  0
 57 59  1  0
 59 60  1  0
 60 61  1  0
 60 62  1  0
 62 63  2  0
 62 64  1  0
 64 65  1  0
 65 66  1  0
 65 67  1  0
 67 68  2  0
 67 69  1  0
 69 70  1  0
 70 71  1  0
 70 72  1  0
 72 73  2  0
 72 74  1  0
 74 75  1  0
 75 76  1  0
 76 77  1  0
 76 78  2  0
 75 79  1  0
 79 80  1  0
 80 81  1  0
 35  5  1  0
 14  9  2  0
 81 11  1  0
  1 82  1  0
  1 83  1  0
  1 84  1  0
  4 85  1  0
  5 86  1  6
  6 87  1  0
  6 88  1  0
  8 89  1  0
  8 90  1  0
 10 91  1  0
 12 92  1  0
 14 93  1  0
 15 94  1  0
 15 95  1  0
 17 96  1  0
 17 97  1  0
 18 98  1  6
 19 99  1  0
 22100  1  6
 23101  1  0
 23102  1  0
 23103  1  0
 24104  1  0
 27105  1  6
 28106  1  0
 28107  1  0
 28108  1  0
 29109  1  0
 32110  1  6
 33111  1  0
 33112  1  0
 33113  1  0
 34114  1  0
 39115  1  0
 40116  1  6
 41117  1  0
 41118  1  0
 41119  1  0
 44120  1  0
 45121  1  6
 46122  1  0
 46123  1  0
 46124  1  0
 49125  1  0
 50126  1  6
 51127  1  0
 51128  1  0
 51129  1  0
 54130  1  0
 55131  1  6
 56132  1  0
 56133  1  0
 56134  1  0
 59135  1  0
 60136  1  6
 61137  1  0
 61138  1  0
 61139  1  0
 64140  1  0
 65141  1  6
 66142  1  0
 66143  1  0
 66144  1  0
 69145  1  0
 70146  1  1
 71147  1  0
 71148  1  0
 71149  1  0
 74150  1  0
 75151  1  1
 77152  1  0
 77153  1  0
 79154  1  0
 79155  1  0
 81156  1  0
 81157  1  0
M  END
