
     RDKit          3D

157159  0  0  0  0  0  0  0  0999 V2000
   10.0716    4.4993    0.0435 C   0  0  0  0  0  0  0  0  0  0  0  0
    9.4071    4.7153   -1.2819 C   0  0  0  0  0  0  0  0  0  0  0  0
    9.8540    5.6148   -2.0429 O   0  0  0  0  0  0  0  0  0  0  0  0
    8.2907    3.9255   -1.7196 N   0  0  0  0  0  0  0  0  0  0  0  0
    7.6524    2.8568   -0.9356 C   0  0  1  0  0  0  0  0  0  0  0  0
    6.1814    3.2256   -0.6563 C   0  0  0  0  0  0  0  0  0  0  0  0
    6.0282    4.0231    0.9860 S   0  0  0  0  0  0  0  0  0  0  0  0
    4.3845    4.7983    0.7444 C   0  0  0  0  0  0  0  0  0  0  0  0
    3.3108    3.8591    0.2489 C   0  0  0  0  0  0  0  0  0  0  0  0
    2.3810    4.3152   -0.7027 C   0  0  0  0  0  0  0  0  0  0  0  0
    1.3782    3.4659   -1.1913 C   0  0  0  0  0  0  0  0  0  0  0  0
    1.3272    2.1344   -0.7504 C   0  0  0  0  0  0  0  0  0  0  0  0
    2.2397    1.6683    0.2077 C   0  0  0  0  0  0  0  0  0  0  0  0
    3.2037    2.5458    0.7320 C   0  0  0  0  0  0  0  0  0  0  0  0
    2.2435    0.2193    0.6024 C   0  0  0  0  0  0  0  0  0  0  0  0
    2.8481   -0.7834   -0.7956 S   0  0  0  0  0  0  0  0  0  0  0  0
    3.0280   -2.3377    0.1581 C   0  0  0  0  0  0  0  0  0  0  0  0
    3.1722   -3.5799   -0.7418 C   0  0  2  0  0  0  0  0  0  0  0  0
    4.2039   -3.3811   -1.7715 N   0  0  0  0  0  0  0  0  0  0  0  0
    5.4072   -4.1566   -1.8982 C   0  0  0  0  0  0  0  0  0  0  0  0
    6.0095   -4.1599   -3.0066 O   0  0  0  0  0  0  0  0  0  0  0  0
    5.9757   -4.9710   -0.7568 C   0  0  1  0  0  0  0  0  0  0  0  0
    5.4815   -6.4159   -0.8387 C   0  0  0  0  0  0  0  0  0  0  0  0
    7.4463   -4.9610   -0.8153 N   0  0  0  0  0  0  0  0  0  0  0  0
    8.3361   -4.2063    0.0273 C   0  0  0  0  0  0  0  0  0  0  0  0
    9.5108   -3.9855   -0.3908 O   0  0  0  0  0  0  0  0  0  0  0  0
    7.9698   -3.7103    1.4100 C   0  0  1  0  0  0  0  0  0  0  0  0
    8.8171   -4.4449    2.4566 C   0  0  0  0  0  0  0  0  0  0  0  0
    8.1912   -2.2615    1.4995 N   0  0  0  0  0  0  0  0  0  0  0  0
    7.5537   -1.3314    0.6094 C   0  0  0  0  0  0  0  0  0  0  0  0
    6.5090   -1.6782   -0.0035 O   0  0  0  0  0  0  0  0  0  0  0  0
    8.0860    0.0719    0.3889 C   0  0  1  0  0  0  0  0  0  0  0  0
    9.4590    0.2983    1.0353 C   0  0  0  0  0  0  0  0  0  0  0  0
    8.1850    0.3326   -1.0548 N   0  0  0  0  0  0  0  0  0  0  0  0
    7.7468    1.5474   -1.6886 C   0  0  0  0  0  0  0  0  0  0  0  0
    7.4497    1.5213   -2.9133 O   0  0  0  0  0  0  0  0  0  0  0  0
    1.8671   -3.9612   -1.3914 C   0  0  0  0  0  0  0  0  0  0  0  0
    1.1583   -3.1005   -1.9772 O   0  0  0  0  0  0  0  0  0  0  0  0
    1.4279   -5.3193   -1.3501 N   0  0  0  0  0  0  0  0  0  0  0  0
    0.4107   -5.7411   -0.3867 C   0  0  2  0  0  0  0  0  0  0  0  0
    1.0208   -6.7419    0.5938 C   0  0  0  0  0  0  0  0  0  0  0  0
   -0.7614   -6.3603   -1.1076 C   0  0  0  0  0  0  0  0  0  0  0  0
   -0.5503   -7.0725   -2.1287 O   0  0  0  0  0  0  0  0  0  0  0  0
   -2.1183   -6.1214   -0.6976 N   0  0  0  0  0  0  0  0  0  0  0  0
   -2.5311   -5.9991    0.7050 C   0  0  2  0  0  0  0  0  0  0  0  0
   -2.8656   -7.3912    1.2501 C   0  0  0  0  0  0  0  0  0  0  0  0
   -3.6876   -5.0259    0.7888 C   0  0  0  0  0  0  0  0  0  0  0  0
   -3.4781   -3.8201    0.4829 O   0  0  0  0  0  0  0  0  0  0  0  0
   -5.0131   -5.4436    1.1569 N   0  0  0  0  0  0  0  0  0  0  0  0
   -6.2186   -4.9493    0.4877 C   0  0  2  0  0  0  0  0  0  0  0  0
   -6.1150   -5.1667   -1.0289 C   0  0  0  0  0  0  0  0  0  0  0  0
   -6.5085   -3.5195    0.8731 C   0  0  0  0  0  0  0  0  0  0  0  0
   -6.6964   -3.2417    2.0884 O   0  0  0  0  0  0  0  0  0  0  0  0
   -6.6829   -2.5018   -0.1175 N   0  0  0  0  0  0  0  0  0  0  0  0
   -7.8933   -1.6645   -0.1510 C   0  0  2  0  0  0  0  0  0  0  0  0
   -9.1342   -2.5569   -0.2921 C   0  0  0  0  0  0  0  0  0  0  0  0
   -7.8615   -0.6636   -1.2945 C   0  0  0  0  0  0  0  0  0  0  0  0
   -7.0400   -0.8193   -2.2404 O   0  0  0  0  0  0  0  0  0  0  0  0
   -8.8056    0.4158   -1.3938 N   0  0  0  0  0  0  0  0  0  0  0  0
   -9.5931    0.9580   -0.2792 C   0  0  2  0  0  0  0  0  0  0  0  0
  -11.0031    1.3107   -0.7606 C   0  0  0  0  0  0  0  0  0  0  0  0
   -8.9080    2.1729    0.2906 C   0  0  0  0  0  0  0  0  0  0  0  0
   -8.5390    2.1612    1.4959 O   0  0  0  0  0  0  0  0  0  0  0  0
   -8.6631    3.3324   -0.5236 N   0  0  0  0  0  0  0  0  0  0  0  0
   -8.2657    4.6228    0.0512 C   0  0  2  0  0  0  0  0  0  0  0  0
   -9.4372    5.2138    0.8424 C   0  0  0  0  0  0  0  0  0  0  0  0
   -7.8753    5.5942   -1.0433 C   0  0  0  0  0  0  0  0  0  0  0  0
   -8.6825    5.7724   -1.9968 O   0  0  0  0  0  0  0  0  0  0  0  0
   -6.6509    6.3596   -1.0399 N   0  0  0  0  0  0  0  0  0  0  0  0
   -5.5990    6.3216   -0.0104 C   0  0  2  0  0  0  0  0  0  0  0  0
   -6.0849    6.9867    1.2855 C   0  0  0  0  0  0  0  0  0  0  0  0
   -4.3725    7.0672   -0.5081 C   0  0  0  0  0  0  0  0  0  0  0  0
   -4.4761    8.2896   -0.7866 O   0  0  0  0  0  0  0  0  0  0  0  0
   -3.0949    6.4308   -0.6806 N   0  0  0  0  0  0  0  0  0  0  0  0
   -2.5343    5.4590    0.2687 C   0  0  2  0  0  0  0  0  0  0  0  0
   -2.4097    6.0838    1.6325 C   0  0  0  0  0  0  0  0  0  0  0  0
   -1.6221    7.2623    1.8301 N   0  0  0  0  0  0  0  0  0  0  0  0
   -3.0120    5.5734    2.6149 O   0  0  0  0  0  0  0  0  0  0  0  0
   -1.1522    4.9663   -0.2069 C   0  0  0  0  0  0  0  0  0  0  0  0
   -1.3339    3.8502   -1.6423 S   0  0  0  0  0  0  0  0  0  0  0  0
    0.3968    3.9626   -2.2229 C   0  0  0  0  0  0  0  0  0  0  0  0
   10.4964    3.4789    0.0853 H   0  0  0  0  0  0  0  0  0  0  0  0
    9.3410    4.6452    0.8675 H   0  0  0  0  0  0  0  0  0  0  0  0
   10.9006    5.2262    0.1811 H   0  0  0  0  0  0  0  0  0  0  0  0
    7.9005    4.1342   -2.6694 H   0  0  0  0  0  0  0  0  0  0  0  0
    8.1759    2.7370    0.0253 H   0  0  0  0  0  0  0  0  0  0  0  0
    5.7861    3.8997   -1.4483 H   0  0  0  0  0  0  0  0  0  0  0  0
    5.5551    2.3055   -0.6398 H   0  0  0  0  0  0  0  0  0  0  0  0
    4.5124    5.6530    0.0471 H   0  0  0  0  0  0  0  0  0  0  0  0
    4.0651    5.2152    1.7201 H   0  0  0  0  0  0  0  0  0  0  0  0
    2.4381    5.3348   -1.0676 H   0  0  0  0  0  0  0  0  0  0  0  0
    0.5850    1.4557   -1.1632 H   0  0  0  0  0  0  0  0  0  0  0  0
    3.9028    2.1886    1.4772 H   0  0  0  0  0  0  0  0  0  0  0  0
    1.2153   -0.1035    0.8778 H   0  0  0  0  0  0  0  0  0  0  0  0
    2.9031    0.0511    1.4809 H   0  0  0  0  0  0  0  0  0  0  0  0
    3.9307   -2.2554    0.8018 H   0  0  0  0  0  0  0  0  0  0  0  0
    2.1533   -2.4739    0.8313 H   0  0  0  0  0  0  0  0  0  0  0  0
    3.4460   -4.4218   -0.0760 H   0  0  0  0  0  0  0  0  0  0  0  0
    3.9942   -2.7089   -2.5447 H   0  0  0  0  0  0  0  0  0  0  0  0
    5.6217   -4.5398    0.1897 H   0  0  0  0  0  0  0  0  0  0  0  0
    5.7841   -6.8745   -1.8046 H   0  0  0  0  0  0  0  0  0  0  0  0
    4.3751   -6.4576   -0.7609 H   0  0  0  0  0  0  0  0  0  0  0  0
    5.9107   -7.0109   -0.0062 H   0  0  0  0  0  0  0  0  0  0  0  0
    7.8817   -5.4225   -1.6497 H   0  0  0  0  0  0  0  0  0  0  0  0
    6.9172   -3.9175    1.6716 H   0  0  0  0  0  0  0  0  0  0  0  0
    8.6818   -5.5468    2.3654 H   0  0  0  0  0  0  0  0  0  0  0  0
    8.5132   -4.1360    3.4798 H   0  0  0  0  0  0  0  0  0  0  0  0
    9.8975   -4.2070    2.3217 H   0  0  0  0  0  0  0  0  0  0  0  0
    8.7944   -1.8982    2.2735 H   0  0  0  0  0  0  0  0  0  0  0  0
    7.3559    0.7680    0.8517 H   0  0  0  0  0  0  0  0  0  0  0  0
    9.3635    0.3269    2.1424 H   0  0  0  0  0  0  0  0  0  0  0  0
    9.8766    1.2762    0.7186 H   0  0  0  0  0  0  0  0  0  0  0  0
   10.1779   -0.4903    0.7375 H   0  0  0  0  0  0  0  0  0  0  0  0
    8.5474   -0.4300   -1.6712 H   0  0  0  0  0  0  0  0  0  0  0  0
    2.0173   -6.0448   -1.8130 H   0  0  0  0  0  0  0  0  0  0  0  0
    0.0642   -4.8528    0.1907 H   0  0  0  0  0  0  0  0  0  0  0  0
    1.2946   -7.6859    0.0708 H   0  0  0  0  0  0  0  0  0  0  0  0
    0.3112   -6.9751    1.4124 H   0  0  0  0  0  0  0  0  0  0  0  0
    1.9465   -6.3184    1.0442 H   0  0  0  0  0  0  0  0  0  0  0  0
   -2.8671   -6.3416   -1.3971 H   0  0  0  0  0  0  0  0  0  0  0  0
   -1.7101   -5.5875    1.3275 H   0  0  0  0  0  0  0  0  0  0  0  0
   -3.7113   -7.8400    0.6817 H   0  0  0  0  0  0  0  0  0  0  0  0
   -3.1212   -7.3342    2.3290 H   0  0  0  0  0  0  0  0  0  0  0  0
   -1.9861   -8.0651    1.1421 H   0  0  0  0  0  0  0  0  0  0  0  0
   -5.1366   -6.2174    1.8520 H   0  0  0  0  0  0  0  0  0  0  0  0
   -7.0828   -5.5590    0.8403 H   0  0  0  0  0  0  0  0  0  0  0  0
   -7.0692   -4.8787   -1.5231 H   0  0  0  0  0  0  0  0  0  0  0  0
   -5.9205   -6.2407   -1.2440 H   0  0  0  0  0  0  0  0  0  0  0  0
   -5.2851   -4.5672   -1.4656 H   0  0  0  0  0  0  0  0  0  0  0  0
   -5.9031   -2.3628   -0.8030 H   0  0  0  0  0  0  0  0  0  0  0  0
   -7.9443   -1.1070    0.8080 H   0  0  0  0  0  0  0  0  0  0  0  0
   -9.2457   -3.2077    0.6014 H   0  0  0  0  0  0  0  0  0  0  0  0
   -9.0462   -3.2025   -1.1922 H   0  0  0  0  0  0  0  0  0  0  0  0
  -10.0597   -1.9495   -0.3860 H   0  0  0  0  0  0  0  0  0  0  0  0
   -8.8173    0.9501   -2.2920 H   0  0  0  0  0  0  0  0  0  0  0  0
   -9.7117    0.2028    0.5252 H   0  0  0  0  0  0  0  0  0  0  0  0
  -10.9750    2.0693   -1.5710 H   0  0  0  0  0  0  0  0  0  0  0  0
  -11.5038    0.3994   -1.1519 H   0  0  0  0  0  0  0  0  0  0  0  0
  -11.6118    1.7102    0.0817 H   0  0  0  0  0  0  0  0  0  0  0  0
   -8.8347    3.2555   -1.5518 H   0  0  0  0  0  0  0  0  0  0  0  0
   -7.4110    4.4503    0.7344 H   0  0  0  0  0  0  0  0  0  0  0  0
   -9.1903    6.2285    1.2168 H   0  0  0  0  0  0  0  0  0  0  0  0
   -9.6837    4.5733    1.7138 H   0  0  0  0  0  0  0  0  0  0  0  0
  -10.3387    5.2884    0.1974 H   0  0  0  0  0  0  0  0  0  0  0  0
   -6.5018    6.9738   -1.8759 H   0  0  0  0  0  0  0  0  0  0  0  0
   -5.3342    5.2648    0.1945 H   0  0  0  0  0  0  0  0  0  0  0  0
   -6.4337    8.0211    1.0833 H   0  0  0  0  0  0  0  0  0  0  0  0
   -5.2556    7.0396    2.0228 H   0  0  0  0  0  0  0  0  0  0  0  0
   -6.9103    6.4175    1.7475 H   0  0  0  0  0  0  0  0  0  0  0  0
   -2.4551    6.8520   -1.3906 H   0  0  0  0  0  0  0  0  0  0  0  0
   -3.2037    4.5751    0.3342 H   0  0  0  0  0  0  0  0  0  0  0  0
   -1.5525    7.7017    2.7733 H   0  0  0  0  0  0  0  0  0  0  0  0
   -1.1243    7.7139    1.0295 H   0  0  0  0  0  0  0  0  0  0  0  0
   -0.5069    5.8345   -0.4756 H   0  0  0  0  0  0  0  0  0  0  0  0
   -0.6496    4.4010    0.6078 H   0  0  0  0  0  0  0  0  0  0  0  0
    0.4966    3.3417   -3.1373 H   0  0  0  0  0  0  0  0  0  0  0  0
    0.6125    5.0118   -2.5164 H   0  0  0  0  0  0  0  0  0  0  0  0
  1  2  1  0
  2  3  2  0
  2  4  1  0
  4  5  1  0
  5  6  1  0
  6  7  1  0
  7  8  1  0
  8  9  1  0
  9 10  1  0
 10 11  2  0
 11 12  1  0
 12 13  2  0
 13 14  1  0
 13 15  1  0
 15 16  1  0
 16 17  1  0
 17 18  1  0
 18 19  1  0
 19 20  1  0
 20 21  2  0
 20 22  1  0
 22 23  1  0
 22 24  1  0
 24 25  1  0
 25 26  2  0
 25 27  1  0
 27 28  1  0
 27 29  1  0
 29 30  1  0
 30 31  2  0
 30 32  1  0
 32 33  1  0
 32 34  1  0
 34 35  1  0
 35 36  2  0
 18 37  1  0
 37 38  2  0
 37 39  1  0
 39 40  1  0
 40 41  1  0
 40 42  1  0
 42 43  2  0
 42 44  1  0
 44 45  1  0
 45 46  1  0
 45 47  1  0
 47 48  2  0
 47 49  1  0
 49 50  1  0
 50 51  1  0
 50 52  1  0
 52 53  2  0
 52 54  1  0
 54 55  1  0
 55 56  1  0
 55 57  1  0
 57 58  2  0
 57 59  1  0
 59 60  1  0
 60 61  1  0
 60 62  1  0
 62 63  2  0
 62 64  1  0
 64 65  1  0
 65 66  1  0
 65 67  1  0
 67 68  2  0
 67 69  1  0
 69 70  1  0
 70 71  1  0
 70 72  1  0
 72 73  2  0
 72 74  1  0
 74 75  1  0
 75 76  1  0
 76 77  1  0
 76 78  2  0
 75 79  1  0
 79 80  1  0
 80 81  1  0
 35  5  1  0
 14  9  2  0
 81 11  1  0
  1 82  1  0
  1 83  1  0
  1 84  1  0
  4 85  1  0
  5 86  1  1
  6 87  1  0
  6 88  1  0
  8 89  1  0
  8 90  1  0
 10 91  1  0
 12 92  1  0
 14 93  1  0
 15 94  1  0
 15 95  1  0
 17 96  1  0
 17 97  1  0
 18 98  1  1
 19 99  1  0
 22100  1  1
 23101  1  0
 23102  1  0
 23103  1  0
 24104  1  0
 27105  1  1
 28106  1  0
 28107  1  0
 28108  1  0
 29109  1  0
 32110  1  1
 33111  1  0
 33112  1  0
 33113  1  0
 34114  1  0
 39115  1  0
 40116  1  1
 41117  1  0
 41118  1  0
 41119  1  0
 44120  1  0
 45121  1  1
 46122  1  0
 46123  1  0
 46124  1  0
 49125  1  0
 50126  1  1
 51127  1  0
 51128  1  0
 51129  1  0
 54130  1  0
 55131  1  1
 56132  1  0
 56133  1  0
 56134  1  0
 59135  1  0
 60136  1  1
 61137  1  0
 61138  1  0
 61139  1  0
 64140  1  0
 65141  1  1
 66142  1  0
 66143  1  0
 66144  1  0
 69145  1  0
 70146  1  1
 71147  1  0
 71148  1  0
 71149  1  0
 74150  1  0
 75151  1  1
 77152  1  0
 77153  1  0
 79154  1  0
 79155  1  0
 81156  1  0
 81157  1  0
M  END
