
     RDKit          3D

157159  0  0  0  0  0  0  0  0999 V2000
   -9.0752    5.5351    1.9616 C   0  0  0  0  0  0  0  0  0  0  0  0
   -8.4134    4.3786    1.2858 C   0  0  0  0  0  0  0  0  0  0  0  0
   -7.9340    3.4446    1.9876 O   0  0  0  0  0  0  0  0  0  0  0  0
   -8.3081    4.3424   -0.1461 N   0  0  0  0  0  0  0  0  0  0  0  0
   -7.6796    3.2334   -0.8718 C   0  0  2  0  0  0  0  0  0  0  0  0
   -6.7501    3.7843   -1.9669 C   0  0  0  0  0  0  0  0  0  0  0  0
   -5.1637    4.3571   -1.2523 S   0  0  0  0  0  0  0  0  0  0  0  0
   -4.2922    2.7637   -1.4908 C   0  0  0  0  0  0  0  0  0  0  0  0
   -2.9636    2.6732   -0.7798 C   0  0  0  0  0  0  0  0  0  0  0  0
   -2.7030    3.3587    0.4191 C   0  0  0  0  0  0  0  0  0  0  0  0
   -1.4900    3.1754    1.0992 C   0  0  0  0  0  0  0  0  0  0  0  0
   -0.5703    2.2237    0.6247 C   0  0  0  0  0  0  0  0  0  0  0  0
   -0.8289    1.5069   -0.5497 C   0  0  0  0  0  0  0  0  0  0  0  0
   -2.0193    1.7463   -1.2519 C   0  0  0  0  0  0  0  0  0  0  0  0
    0.1288    0.4358   -1.0124 C   0  0  0  0  0  0  0  0  0  0  0  0
    0.0879   -1.0410    0.0757 S   0  0  0  0  0  0  0  0  0  0  0  0
   -1.7228   -1.3294   -0.0117 C   0  0  0  0  0  0  0  0  0  0  0  0
   -2.1008   -2.8093    0.1696 C   0  0  2  0  0  0  0  0  0  0  0  0
   -3.5659   -2.9216    0.1274 N   0  0  0  0  0  0  0  0  0  0  0  0
   -4.3009   -3.9822    0.7473 C   0  0  0  0  0  0  0  0  0  0  0  0
   -4.1509   -5.1630    0.3339 O   0  0  0  0  0  0  0  0  0  0  0  0
   -5.1881   -3.7164    1.9352 C   0  0  1  0  0  0  0  0  0  0  0  0
   -5.3934   -2.2259    2.2455 C   0  0  0  0  0  0  0  0  0  0  0  0
   -6.4733   -4.4201    1.8098 N   0  0  0  0  0  0  0  0  0  0  0  0
   -7.5537   -4.1185    0.9049 C   0  0  0  0  0  0  0  0  0  0  0  0
   -8.6972   -4.5799    1.1666 O   0  0  0  0  0  0  0  0  0  0  0  0
   -7.3666   -3.3494   -0.3820 C   0  0  1  0  0  0  0  0  0  0  0  0
   -7.4393   -4.2929   -1.5802 C   0  0  0  0  0  0  0  0  0  0  0  0
   -8.3956   -2.3166   -0.4956 N   0  0  0  0  0  0  0  0  0  0  0  0
   -8.1328   -0.9679   -0.0969 C   0  0  0  0  0  0  0  0  0  0  0  0
   -8.4098   -0.6150    1.0791 O   0  0  0  0  0  0  0  0  0  0  0  0
   -7.6329    0.0690   -1.0737 C   0  0  1  0  0  0  0  0  0  0  0  0
   -7.0119   -0.5471   -2.3281 C   0  0  0  0  0  0  0  0  0  0  0  0
   -8.7534    0.9349   -1.4612 N   0  0  0  0  0  0  0  0  0  0  0  0
   -8.7545    2.3740   -1.5011 C   0  0  0  0  0  0  0  0  0  0  0  0
   -9.6807    2.9482   -2.1366 O   0  0  0  0  0  0  0  0  0  0  0  0
   -1.5544   -3.3597    1.4759 C   0  0  0  0  0  0  0  0  0  0  0  0
   -1.9218   -2.8193    2.5547 O   0  0  0  0  0  0  0  0  0  0  0  0
   -0.6471   -4.4789    1.5410 N   0  0  0  0  0  0  0  0  0  0  0  0
   -0.0026   -5.1230    0.3843 C   0  0  2  0  0  0  0  0  0  0  0  0
   -0.9753   -6.0956   -0.2948 C   0  0  0  0  0  0  0  0  0  0  0  0
    1.2236   -5.8937    0.8325 C   0  0  0  0  0  0  0  0  0  0  0  0
    1.1103   -6.7202    1.7764 O   0  0  0  0  0  0  0  0  0  0  0  0
    2.5131   -5.7263    0.2164 N   0  0  0  0  0  0  0  0  0  0  0  0
    2.7208   -5.4628   -1.2137 C   0  0  2  0  0  0  0  0  0  0  0  0
    2.6662   -6.7903   -1.9772 C   0  0  0  0  0  0  0  0  0  0  0  0
    4.0490   -4.7721   -1.4423 C   0  0  0  0  0  0  0  0  0  0  0  0
    4.5740   -4.7921   -2.5881 O   0  0  0  0  0  0  0  0  0  0  0  0
    4.7008   -4.0561   -0.3796 N   0  0  0  0  0  0  0  0  0  0  0  0
    6.1646   -4.0452   -0.2609 C   0  0  2  0  0  0  0  0  0  0  0  0
    6.6469   -5.4155    0.2244 C   0  0  0  0  0  0  0  0  0  0  0  0
    6.6307   -2.9668    0.6939 C   0  0  0  0  0  0  0  0  0  0  0  0
    5.9568   -2.7331    1.7340 O   0  0  0  0  0  0  0  0  0  0  0  0
    7.8293   -2.2028    0.4634 N   0  0  0  0  0  0  0  0  0  0  0  0
    9.0058   -2.7159   -0.2490 C   0  0  2  0  0  0  0  0  0  0  0  0
   10.0687   -3.1394    0.7659 C   0  0  0  0  0  0  0  0  0  0  0  0
    9.5711   -1.6871   -1.1940 C   0  0  0  0  0  0  0  0  0  0  0  0
   10.2081   -2.0764   -2.2099 O   0  0  0  0  0  0  0  0  0  0  0  0
    9.5134   -0.2849   -0.9045 N   0  0  0  0  0  0  0  0  0  0  0  0
    8.2987    0.4931   -1.1726 C   0  0  2  0  0  0  0  0  0  0  0  0
    8.3090    0.9828   -2.6228 C   0  0  0  0  0  0  0  0  0  0  0  0
    8.1883    1.6512   -0.2116 C   0  0  0  0  0  0  0  0  0  0  0  0
    9.1526    1.9516    0.5435 O   0  0  0  0  0  0  0  0  0  0  0  0
    6.9666    2.3825   -0.1083 N   0  0  0  0  0  0  0  0  0  0  0  0
    6.7582    3.6068   -0.8836 C   0  0  2  0  0  0  0  0  0  0  0  0
    7.3459    4.8328   -0.1748 C   0  0  0  0  0  0  0  0  0  0  0  0
    5.2984    3.7729   -1.2565 C   0  0  0  0  0  0  0  0  0  0  0  0
    5.0200    3.9822   -2.4682 O   0  0  0  0  0  0  0  0  0  0  0  0
    4.2113    3.6110   -0.3228 N   0  0  0  0  0  0  0  0  0  0  0  0
    4.2286    4.0415    1.0790 C   0  0  2  0  0  0  0  0  0  0  0  0
    3.3377    3.1208    1.9164 C   0  0  0  0  0  0  0  0  0  0  0  0
    3.8559    5.5031    1.1644 C   0  0  0  0  0  0  0  0  0  0  0  0
    4.5911    6.3508    0.5883 O   0  0  0  0  0  0  0  0  0  0  0  0
    2.7431    5.9721    1.9331 N   0  0  0  0  0  0  0  0  0  0  0  0
    1.3708    5.8772    1.4314 C   0  0  2  0  0  0  0  0  0  0  0  0
    1.1712    6.8466    0.2955 C   0  0  0  0  0  0  0  0  0  0  0  0
    1.4842    8.2325    0.4449 N   0  0  0  0  0  0  0  0  0  0  0  0
    0.7411    6.4273   -0.8108 O   0  0  0  0  0  0  0  0  0  0  0  0
    0.3827    6.1562    2.5777 C   0  0  0  0  0  0  0  0  0  0  0  0
   -1.3397    5.7277    2.1189 S   0  0  0  0  0  0  0  0  0  0  0  0
   -1.2176    3.9182    2.3785 C   0  0  0  0  0  0  0  0  0  0  0  0
   -9.4522    6.2738    1.2206 H   0  0  0  0  0  0  0  0  0  0  0  0
   -9.9322    5.1714    2.5662 H   0  0  0  0  0  0  0  0  0  0  0  0
   -8.3476    6.0363    2.6271 H   0  0  0  0  0  0  0  0  0  0  0  0
   -8.7871    5.0915   -0.7026 H   0  0  0  0  0  0  0  0  0  0  0  0
   -7.0755    2.6430   -0.1658 H   0  0  0  0  0  0  0  0  0  0  0  0
   -6.5565    3.0091   -2.7446 H   0  0  0  0  0  0  0  0  0  0  0  0
   -7.2321    4.6431   -2.4827 H   0  0  0  0  0  0  0  0  0  0  0  0
   -4.9269    1.9247   -1.1411 H   0  0  0  0  0  0  0  0  0  0  0  0
   -4.1280    2.6344   -2.5844 H   0  0  0  0  0  0  0  0  0  0  0  0
   -3.4416    4.0266    0.8385 H   0  0  0  0  0  0  0  0  0  0  0  0
    0.3259    2.0109    1.1847 H   0  0  0  0  0  0  0  0  0  0  0  0
   -2.2324    1.1833   -2.1501 H   0  0  0  0  0  0  0  0  0  0  0  0
    1.1590    0.8481   -1.0065 H   0  0  0  0  0  0  0  0  0  0  0  0
   -0.1053    0.1158   -2.0516 H   0  0  0  0  0  0  0  0  0  0  0  0
   -2.2158   -0.7069    0.7716 H   0  0  0  0  0  0  0  0  0  0  0  0
   -2.1029   -1.0069   -1.0046 H   0  0  0  0  0  0  0  0  0  0  0  0
   -1.6874   -3.3444   -0.7047 H   0  0  0  0  0  0  0  0  0  0  0  0
   -4.0936   -2.3147   -0.5437 H   0  0  0  0  0  0  0  0  0  0  0  0
   -4.6533   -4.1445    2.8154 H   0  0  0  0  0  0  0  0  0  0  0  0
   -4.4264   -1.7584    2.5145 H   0  0  0  0  0  0  0  0  0  0  0  0
   -6.0855   -2.1119    3.1044 H   0  0  0  0  0  0  0  0  0  0  0  0
   -5.8082   -1.6767    1.3824 H   0  0  0  0  0  0  0  0  0  0  0  0
   -6.6554   -5.1709    2.5154 H   0  0  0  0  0  0  0  0  0  0  0  0
   -6.3711   -2.8728   -0.4086 H   0  0  0  0  0  0  0  0  0  0  0  0
   -7.3305   -3.7139   -2.5215 H   0  0  0  0  0  0  0  0  0  0  0  0
   -6.6139   -5.0342   -1.5328 H   0  0  0  0  0  0  0  0  0  0  0  0
   -8.4133   -4.8268   -1.6057 H   0  0  0  0  0  0  0  0  0  0  0  0
   -9.3961   -2.6124   -0.5684 H   0  0  0  0  0  0  0  0  0  0  0  0
   -6.8307    0.6273   -0.5664 H   0  0  0  0  0  0  0  0  0  0  0  0
   -7.7570   -1.1634   -2.8746 H   0  0  0  0  0  0  0  0  0  0  0  0
   -6.1376   -1.1728   -2.0617 H   0  0  0  0  0  0  0  0  0  0  0  0
   -6.6562    0.2602   -3.0028 H   0  0  0  0  0  0  0  0  0  0  0  0
   -9.5882    0.4604   -1.8742 H   0  0  0  0  0  0  0  0  0  0  0  0
   -0.3695   -4.7843    2.5018 H   0  0  0  0  0  0  0  0  0  0  0  0
    0.3004   -4.3321   -0.3259 H   0  0  0  0  0  0  0  0  0  0  0  0
   -1.3296   -6.8642    0.4250 H   0  0  0  0  0  0  0  0  0  0  0  0
   -1.8530   -5.5649   -0.7106 H   0  0  0  0  0  0  0  0  0  0  0  0
   -0.4727   -6.6054   -1.1426 H   0  0  0  0  0  0  0  0  0  0  0  0
    3.3203   -6.1456    0.7337 H   0  0  0  0  0  0  0  0  0  0  0  0
    1.9343   -4.7989   -1.6213 H   0  0  0  0  0  0  0  0  0  0  0  0
    3.5131   -7.4442   -1.6810 H   0  0  0  0  0  0  0  0  0  0  0  0
    1.7202   -7.3214   -1.7593 H   0  0  0  0  0  0  0  0  0  0  0  0
    2.7150   -6.6110   -3.0717 H   0  0  0  0  0  0  0  0  0  0  0  0
    4.1130   -3.6995    0.4058 H   0  0  0  0  0  0  0  0  0  0  0  0
    6.5913   -3.8426   -1.2668 H   0  0  0  0  0  0  0  0  0  0  0  0
    6.3775   -6.1985   -0.5160 H   0  0  0  0  0  0  0  0  0  0  0  0
    7.7503   -5.4241    0.3488 H   0  0  0  0  0  0  0  0  0  0  0  0
    6.1738   -5.6644    1.1986 H   0  0  0  0  0  0  0  0  0  0  0  0
    7.9611   -1.3527    1.0600 H   0  0  0  0  0  0  0  0  0  0  0  0
    8.7448   -3.6093   -0.8516 H   0  0  0  0  0  0  0  0  0  0  0  0
   10.3768   -2.2772    1.3951 H   0  0  0  0  0  0  0  0  0  0  0  0
   10.9599   -3.5421    0.2395 H   0  0  0  0  0  0  0  0  0  0  0  0
    9.6613   -3.9363    1.4251 H   0  0  0  0  0  0  0  0  0  0  0  0
   10.4210    0.2310   -0.9398 H   0  0  0  0  0  0  0  0  0  0  0  0
    7.4048   -0.1532   -1.0358 H   0  0  0  0  0  0  0  0  0  0  0  0
    7.3257    1.4255   -2.8884 H   0  0  0  0  0  0  0  0  0  0  0  0
    9.1095    1.7403   -2.7711 H   0  0  0  0  0  0  0  0  0  0  0  0
    8.4935    0.1332   -3.3107 H   0  0  0  0  0  0  0  0  0  0  0  0
    6.3942    2.2042    0.7445 H   0  0  0  0  0  0  0  0  0  0  0  0
    7.3237    3.5210   -1.8356 H   0  0  0  0  0  0  0  0  0  0  0  0
    7.0616    5.7597   -0.7129 H   0  0  0  0  0  0  0  0  0  0  0  0
    8.4546    4.7609   -0.1787 H   0  0  0  0  0  0  0  0  0  0  0  0
    7.0280    4.9129    0.8801 H   0  0  0  0  0  0  0  0  0  0  0  0
    3.2647    3.4690   -0.7466 H   0  0  0  0  0  0  0  0  0  0  0  0
    5.2367    3.9293    1.5062 H   0  0  0  0  0  0  0  0  0  0  0  0
    2.3341    3.0243    1.4671 H   0  0  0  0  0  0  0  0  0  0  0  0
    3.7821    2.1042    1.9587 H   0  0  0  0  0  0  0  0  0  0  0  0
    3.2458    3.4993    2.9548 H   0  0  0  0  0  0  0  0  0  0  0  0
    2.9527    6.7446    2.6023 H   0  0  0  0  0  0  0  0  0  0  0  0
    1.1847    4.8519    1.0528 H   0  0  0  0  0  0  0  0  0  0  0  0
    1.4026    8.8791   -0.3674 H   0  0  0  0  0  0  0  0  0  0  0  0
    1.8137    8.6161    1.3618 H   0  0  0  0  0  0  0  0  0  0  0  0
    0.4095    7.2301    2.8501 H   0  0  0  0  0  0  0  0  0  0  0  0
    0.6814    5.5873    3.4850 H   0  0  0  0  0  0  0  0  0  0  0  0
   -1.9763    3.6184    3.1233 H   0  0  0  0  0  0  0  0  0  0  0  0
   -0.2322    3.6282    2.7996 H   0  0  0  0  0  0  0  0  0  0  0  0
  1  2  1  0
  2  3  2  0
  2  4  1  0
  4  5  1  0
  5  6  1  0
  6  7  1  0
  7  8  1  0
  8  9  1  0
  9 10  1  0
 10 11  2  0
 11 12  1  0
 12 13  2  0
 13 14  1  0
 13 15  1  0
 15 16  1  0
 16 17  1  0
 17 18  1  0
 18 19  1  0
 19 20  1  0
 20 21  2  0
 20 22  1  0
 22 23  1  0
 22 24  1  0
 24 25  1  0
 25 26  2  0
 25 27  1  0
 27 28  1  0
 27 29  1  0
 29 30  1  0
 30 31  2  0
 30 32  1  0
 32 33  1  0
 32 34  1  0
 34 35  1  0
 35 36  2  0
 18 37  1  0
 37 38  2  0
 37 39  1  0
 39 40  1  0
 40 41  1  0
 40 42  1  0
 42 43  2  0
 42 44  1  0
 44 45  1  0
 45 46  1  0
 45 47  1  0
 47 48  2  0
 47 49  1  0
 49 50  1  0
 50 51  1  0
 50 52  1  0
 52 53  2  0
 52 54  1  0
 54 55  1  0
 55 56  1  0
 55 57  1  0
 57 58  2  0
 57 59  1  0
 59 60  1  0
 60 61  1  0
 60 62  1  0
 62 63  2  0
 62 64  1  0
 64 65  1  0
 65 66  1  0
 65 67  1  0
 67 68  2  0
 67 69  1  0
 69 70  1  0
 70 71  1  0
 70 72  1  0
 72 73  2  0
 72 74  1  0
 74 75  1  0
 75 76  1  0
 76 77  1  0
 76 78  2  0
 75 79  1  0
 79 80  1  0
 80 81  1  0
 35  5  1  0
 14  9  2  0
 81 11  1  0
  1 82  1  0
  1 83  1  0
  1 84  1  0
  4 85  1  0
  5 86  1  1
  6 87  1  0
  6 88  1  0
  8 89  1  0
  8 90  1  0
 10 91  1  0
 12 92  1  0
 14 93  1  0
 15 94  1  0
 15 95  1  0
 17 96  1  0
 17 97  1  0
 18 98  1  6
 19 99  1  0
 22100  1  1
 23101  1  0
 23102  1  0
 23103  1  0
 24104  1  0
 27105  1  1
 28106  1  0
 28107  1  0
 28108  1  0
 29109  1  0
 32110  1  1
 33111  1  0
 33112  1  0
 33113  1  0
 34114  1  0
 39115  1  0
 40116  1  6
 41117  1  0
 41118  1  0
 41119  1  0
 44120  1  0
 45121  1  6
 46122  1  0
 46123  1  0
 46124  1  0
 49125  1  0
 50126  1  6
 51127  1  0
 51128  1  0
 51129  1  0
 54130  1  0
 55131  1  6
 56132  1  0
 56133  1  0
 56134  1  0
 59135  1  0
 60136  1  6
 61137  1  0
 61138  1  0
 61139  1  0
 64140  1  0
 65141  1  6
 66142  1  0
 66143  1  0
 66144  1  0
 69145  1  0
 70146  1  1
 71147  1  0
 71148  1  0
 71149  1  0
 74150  1  0
 75151  1  6
 77152  1  0
 77153  1  0
 79154  1  0
 79155  1  0
 81156  1  0
 81157  1  0
M  END
