
     RDKit          3D

147149  0  0  0  0  0  0  0  0999 V2000
   10.9941    4.6586    0.4564 C   0  0  0  0  0  0  0  0  0  0  0  0
    9.8169    4.2887   -0.3808 C   0  0  0  0  0  0  0  0  0  0  0  0
    9.8002    4.6374   -1.5936 O   0  0  0  0  0  0  0  0  0  0  0  0
    8.7315    3.5410    0.1830 N   0  0  0  0  0  0  0  0  0  0  0  0
    7.5765    3.0533   -0.5777 C   0  0  1  0  0  0  0  0  0  0  0  0
    6.6409    4.2352   -0.9113 C   0  0  0  0  0  0  0  0  0  0  0  0
    5.1108    3.7155   -1.7730 S   0  0  0  0  0  0  0  0  0  0  0  0
    4.2778    3.0017   -0.3155 C   0  0  0  0  0  0  0  0  0  0  0  0
    2.8267    2.7644   -0.6295 C   0  0  0  0  0  0  0  0  0  0  0  0
    1.9695    3.8497   -0.8651 C   0  0  0  0  0  0  0  0  0  0  0  0
    0.6052    3.6431   -1.1200 C   0  0  0  0  0  0  0  0  0  0  0  0
    0.1005    2.3337   -1.1439 C   0  0  0  0  0  0  0  0  0  0  0  0
    0.9523    1.2385   -0.9340 C   0  0  0  0  0  0  0  0  0  0  0  0
    2.3123    1.4608   -0.6669 C   0  0  0  0  0  0  0  0  0  0  0  0
    0.4134   -0.1586   -0.9333 C   0  0  0  0  0  0  0  0  0  0  0  0
    0.0559   -0.6743    0.7810 S   0  0  0  0  0  0  0  0  0  0  0  0
    1.5266   -1.7390    1.0625 C   0  0  0  0  0  0  0  0  0  0  0  0
    1.1544   -3.2454    1.1052 C   0  0  2  0  0  0  0  0  0  0  0  0
    2.1512   -4.0038    1.8737 N   0  0  0  0  0  0  0  0  0  0  0  0
    3.5641   -3.7804    1.7818 C   0  0  0  0  0  0  0  0  0  0  0  0
    4.1079   -2.9557    2.5697 O   0  0  0  0  0  0  0  0  0  0  0  0
    4.4303   -4.5621    0.8302 C   0  0  1  0  0  0  0  0  0  0  0  0
    3.9858   -6.0235    0.7239 C   0  0  0  0  0  0  0  0  0  0  0  0
    4.4213   -3.9310   -0.4896 N   0  0  0  0  0  0  0  0  0  0  0  0
    5.3855   -2.9631   -0.9541 C   0  0  0  0  0  0  0  0  0  0  0  0
    5.2838   -2.5390   -2.1396 O   0  0  0  0  0  0  0  0  0  0  0  0
    6.5821   -2.5442   -0.1278 C   0  0  1  0  0  0  0  0  0  0  0  0
    7.7278   -3.5318   -0.3753 C   0  0  0  0  0  0  0  0  0  0  0  0
    7.0249   -1.1867   -0.4735 N   0  0  0  0  0  0  0  0  0  0  0  0
    8.1109   -0.5568    0.2225 C   0  0  0  0  0  0  0  0  0  0  0  0
    8.3132   -0.8116    1.4446 O   0  0  0  0  0  0  0  0  0  0  0  0
    9.0883    0.3373   -0.4940 C   0  0  1  0  0  0  0  0  0  0  0  0
   10.3486   -0.4501   -0.8528 C   0  0  0  0  0  0  0  0  0  0  0  0
    8.4999    0.9251   -1.7010 N   0  0  0  0  0  0  0  0  0  0  0  0
    8.0206    2.2750   -1.8017 C   0  0  0  0  0  0  0  0  0  0  0  0
    7.9042    2.7810   -2.9528 O   0  0  0  0  0  0  0  0  0  0  0  0
    0.9702   -3.8712   -0.2637 C   0  0  0  0  0  0  0  0  0  0  0  0
    1.3774   -3.2590   -1.2901 O   0  0  0  0  0  0  0  0  0  0  0  0
    0.3910   -5.1764   -0.4349 N   0  0  0  0  0  0  0  0  0  0  0  0
   -0.3817   -5.8853    0.5920 C   0  0  2  0  0  0  0  0  0  0  0  0
   -0.5387   -7.3639    0.2190 C   0  0  0  0  0  0  0  0  0  0  0  0
   -1.7186   -5.2153    0.7847 C   0  0  0  0  0  0  0  0  0  0  0  0
   -1.9889   -4.7201    1.9100 O   0  0  0  0  0  0  0  0  0  0  0  0
   -2.6770   -5.1438   -0.2845 N   0  0  0  0  0  0  0  0  0  0  0  0
   -3.2830   -3.8928   -0.7639 C   0  0  2  0  0  0  0  0  0  0  0  0
   -2.2135   -2.8541   -1.0924 C   0  0  0  0  0  0  0  0  0  0  0  0
   -4.2910   -3.3443    0.2154 C   0  0  0  0  0  0  0  0  0  0  0  0
   -3.9449   -3.0412    1.3914 O   0  0  0  0  0  0  0  0  0  0  0  0
   -5.6327   -3.0839   -0.2205 N   0  0  0  0  0  0  0  0  0  0  0  0
   -6.8021   -3.2748    0.6435 C   0  0  2  0  0  0  0  0  0  0  0  0
   -6.7126   -4.6061    1.3981 C   0  0  0  0  0  0  0  0  0  0  0  0
   -8.0522   -3.2778   -0.2009 C   0  0  0  0  0  0  0  0  0  0  0  0
   -8.1432   -4.0991   -1.1614 O   0  0  0  0  0  0  0  0  0  0  0  0
   -9.1661   -2.4238    0.0843 N   0  0  0  0  0  0  0  0  0  0  0  0
   -9.0446   -1.0271    0.5137 C   0  0  2  0  0  0  0  0  0  0  0  0
   -9.6172   -0.8773    1.9202 C   0  0  0  0  0  0  0  0  0  0  0  0
   -9.7903   -0.1420   -0.4540 C   0  0  0  0  0  0  0  0  0  0  0  0
  -10.9808   -0.4226   -0.7566 O   0  0  0  0  0  0  0  0  0  0  0  0
   -9.1694    0.9957   -1.0625 N   0  0  0  0  0  0  0  0  0  0  0  0
   -8.5015    2.0389   -0.2750 C   0  0  2  0  0  0  0  0  0  0  0  0
   -9.5530    3.0183    0.2477 C   0  0  0  0  0  0  0  0  0  0  0  0
   -7.4801    2.7650   -1.1243 C   0  0  0  0  0  0  0  0  0  0  0  0
   -7.7164    2.9431   -2.3527 O   0  0  0  0  0  0  0  0  0  0  0  0
   -6.2371    3.2510   -0.5888 N   0  0  0  0  0  0  0  0  0  0  0  0
   -6.1073    3.8405    0.7470 C   0  0  2  0  0  0  0  0  0  0  0  0
   -6.5204    5.3192    0.6915 C   0  0  0  0  0  0  0  0  0  0  0  0
   -4.6930    3.6587    1.2414 C   0  0  0  0  0  0  0  0  0  0  0  0
   -4.2319    2.4922    1.3604 O   0  0  0  0  0  0  0  0  0  0  0  0
   -3.8858    4.7731    1.6308 N   0  0  0  0  0  0  0  0  0  0  0  0
   -2.9836    5.4371    0.6874 C   0  0  1  0  0  0  0  0  0  0  0  0
   -3.2216    6.9287    0.7412 C   0  0  0  0  0  0  0  0  0  0  0  0
   -2.9890    7.6645    1.9475 N   0  0  0  0  0  0  0  0  0  0  0  0
   -3.7066    7.5125   -0.2606 O   0  0  0  0  0  0  0  0  0  0  0  0
   -1.5245    5.0663    1.0128 C   0  0  0  0  0  0  0  0  0  0  0  0
   -0.3306    5.9885   -0.0247 S   0  0  0  0  0  0  0  0  0  0  0  0
   -0.2933    4.8142   -1.4231 C   0  0  0  0  0  0  0  0  0  0  0  0
   10.8838    4.2823    1.4938 H   0  0  0  0  0  0  0  0  0  0  0  0
   11.9213    4.2313    0.0100 H   0  0  0  0  0  0  0  0  0  0  0  0
   11.0815    5.7665    0.4868 H   0  0  0  0  0  0  0  0  0  0  0  0
    8.7777    3.2861    1.1977 H   0  0  0  0  0  0  0  0  0  0  0  0
    7.0100    2.3507    0.0630 H   0  0  0  0  0  0  0  0  0  0  0  0
    6.3779    4.7734    0.0238 H   0  0  0  0  0  0  0  0  0  0  0  0
    7.1684    4.9604   -1.5658 H   0  0  0  0  0  0  0  0  0  0  0  0
    4.3497    3.6887    0.5535 H   0  0  0  0  0  0  0  0  0  0  0  0
    4.7659    2.0443   -0.0514 H   0  0  0  0  0  0  0  0  0  0  0  0
    2.3691    4.8579   -0.8460 H   0  0  0  0  0  0  0  0  0  0  0  0
   -0.9569    2.1674   -1.3317 H   0  0  0  0  0  0  0  0  0  0  0  0
    2.9688    0.6175   -0.4868 H   0  0  0  0  0  0  0  0  0  0  0  0
   -0.5331   -0.2067   -1.5135 H   0  0  0  0  0  0  0  0  0  0  0  0
    1.1244   -0.8344   -1.4475 H   0  0  0  0  0  0  0  0  0  0  0  0
    1.9159   -1.4422    2.0606 H   0  0  0  0  0  0  0  0  0  0  0  0
    2.3439   -1.5523    0.3377 H   0  0  0  0  0  0  0  0  0  0  0  0
    0.1848   -3.3069    1.6427 H   0  0  0  0  0  0  0  0  0  0  0  0
    1.8173   -4.5573    2.6942 H   0  0  0  0  0  0  0  0  0  0  0  0
    5.4615   -4.5939    1.2346 H   0  0  0  0  0  0  0  0  0  0  0  0
    2.9385   -6.1024    0.3702 H   0  0  0  0  0  0  0  0  0  0  0  0
    4.6471   -6.5604    0.0069 H   0  0  0  0  0  0  0  0  0  0  0  0
    4.0717   -6.5127    1.7181 H   0  0  0  0  0  0  0  0  0  0  0  0
    3.6736   -4.2087   -1.1616 H   0  0  0  0  0  0  0  0  0  0  0  0
    6.3162   -2.5502    0.9485 H   0  0  0  0  0  0  0  0  0  0  0  0
    8.5795   -3.3162    0.2989 H   0  0  0  0  0  0  0  0  0  0  0  0
    8.0773   -3.4556   -1.4283 H   0  0  0  0  0  0  0  0  0  0  0  0
    7.3895   -4.5750   -0.1906 H   0  0  0  0  0  0  0  0  0  0  0  0
    6.4562   -0.5918   -1.1209 H   0  0  0  0  0  0  0  0  0  0  0  0
    9.4001    1.1375    0.2045 H   0  0  0  0  0  0  0  0  0  0  0  0
   10.8416   -0.8347    0.0680 H   0  0  0  0  0  0  0  0  0  0  0  0
   10.0901   -1.3159   -1.5055 H   0  0  0  0  0  0  0  0  0  0  0  0
   11.0686    0.2072   -1.3848 H   0  0  0  0  0  0  0  0  0  0  0  0
    8.4436    0.3281   -2.5593 H   0  0  0  0  0  0  0  0  0  0  0  0
    0.4965   -5.6181   -1.3751 H   0  0  0  0  0  0  0  0  0  0  0  0
    0.1881   -5.8598    1.5457 H   0  0  0  0  0  0  0  0  0  0  0  0
    0.4648   -7.8363    0.1455 H   0  0  0  0  0  0  0  0  0  0  0  0
   -1.0465   -7.4798   -0.7626 H   0  0  0  0  0  0  0  0  0  0  0  0
   -1.1208   -7.8964    1.0023 H   0  0  0  0  0  0  0  0  0  0  0  0
   -2.8422   -6.0075   -0.8471 H   0  0  0  0  0  0  0  0  0  0  0  0
   -3.8179   -4.1150   -1.7146 H   0  0  0  0  0  0  0  0  0  0  0  0
   -1.6340   -2.6070   -0.1849 H   0  0  0  0  0  0  0  0  0  0  0  0
   -1.5202   -3.2569   -1.8685 H   0  0  0  0  0  0  0  0  0  0  0  0
   -2.6816   -1.9290   -1.4835 H   0  0  0  0  0  0  0  0  0  0  0  0
   -5.7225   -2.4251   -1.0370 H   0  0  0  0  0  0  0  0  0  0  0  0
   -6.8418   -2.4606    1.3971 H   0  0  0  0  0  0  0  0  0  0  0  0
   -7.6701   -4.8222    1.9250 H   0  0  0  0  0  0  0  0  0  0  0  0
   -5.9101   -4.5755    2.1686 H   0  0  0  0  0  0  0  0  0  0  0  0
   -6.5021   -5.4361    0.6837 H   0  0  0  0  0  0  0  0  0  0  0  0
  -10.1189   -2.8163   -0.0793 H   0  0  0  0  0  0  0  0  0  0  0  0
   -7.9798   -0.7222    0.5232 H   0  0  0  0  0  0  0  0  0  0  0  0
   -9.5359    0.1788    2.2665 H   0  0  0  0  0  0  0  0  0  0  0  0
   -9.0616   -1.5290    2.6269 H   0  0  0  0  0  0  0  0  0  0  0  0
  -10.6862   -1.1839    1.9376 H   0  0  0  0  0  0  0  0  0  0  0  0
   -9.5652    1.2848   -1.9865 H   0  0  0  0  0  0  0  0  0  0  0  0
   -7.9814    1.5784    0.5877 H   0  0  0  0  0  0  0  0  0  0  0  0
   -9.0937    3.7690    0.9260 H   0  0  0  0  0  0  0  0  0  0  0  0
  -10.0517    3.5434   -0.5967 H   0  0  0  0  0  0  0  0  0  0  0  0
  -10.3241    2.4693    0.8247 H   0  0  0  0  0  0  0  0  0  0  0  0
   -5.4926    3.4969   -1.2858 H   0  0  0  0  0  0  0  0  0  0  0  0
   -6.7774    3.3235    1.4633 H   0  0  0  0  0  0  0  0  0  0  0  0
   -6.4641    5.7770    1.7003 H   0  0  0  0  0  0  0  0  0  0  0  0
   -7.5612    5.4202    0.3177 H   0  0  0  0  0  0  0  0  0  0  0  0
   -5.8593    5.8762   -0.0048 H   0  0  0  0  0  0  0  0  0  0  0  0
   -3.8456    5.0180    2.6416 H   0  0  0  0  0  0  0  0  0  0  0  0
   -3.2110    5.0848   -0.3478 H   0  0  0  0  0  0  0  0  0  0  0  0
   -2.6290    7.1895    2.8050 H   0  0  0  0  0  0  0  0  0  0  0  0
   -3.1441    8.6996    1.9668 H   0  0  0  0  0  0  0  0  0  0  0  0
   -1.3882    3.9742    0.8710 H   0  0  0  0  0  0  0  0  0  0  0  0
   -1.3009    5.2914    2.0746 H   0  0  0  0  0  0  0  0  0  0  0  0
   -1.3268    4.4862   -1.6711 H   0  0  0  0  0  0  0  0  0  0  0  0
    0.1030    5.3450   -2.3110 H   0  0  0  0  0  0  0  0  0  0  0  0
  1  2  1  0
  2  3  2  0
  2  4  1  0
  4  5  1  0
  5  6  1  0
  6  7  1  0
  7  8  1  0
  8  9  1  0
  9 10  1  0
 10 11  2  0
 11 12  1  0
 12 13  2  0
 13 14  1  0
 13 15  1  0
 15 16  1  0
 16 17  1  0
 17 18  1  0
 18 19  1  0
 19 20  1  0
 20 21  2  0
 20 22  1  0
 22 23  1  0
 22 24  1  0
 24 25  1  0
 25 26  2  0
 25 27  1  0
 27 28  1  0
 27 29  1  0
 29 30  1  0
 30 31  2  0
 30 32  1  0
 32 33  1  0
 32 34  1  0
 34 35  1  0
 35 36  2  0
 18 37  1  0
 37 38  2  0
 37 39  1  0
 39 40  1  0
 40 41  1  0
 40 42  1  0
 42 43  2  0
 42 44  1  0
 44 45  1  0
 45 46  1  0
 45 47  1  0
 47 48  2  0
 47 49  1  0
 49 50  1  0
 50 51  1  0
 50 52  1  0
 52 53  2  0
 52 54  1  0
 54 55  1  0
 55 56  1  0
 55 57  1  0
 57 58  2  0
 57 59  1  0
 59 60  1  0
 60 61  1  0
 60 62  1  0
 62 63  2  0
 62 64  1  0
 64 65  1  0
 65 66  1  0
 65 67  1  0
 67 68  2  0
 67 69  1  0
 69 70  1  0
 70 71  1  0
 71 72  1  0
 71 73  2  0
 70 74  1  0
 74 75  1  0
 75 76  1  0
 35  5  1  0
 14  9  2  0
 76 11  1  0
  1 77  1  0
  1 78  1  0
  1 79  1  0
  4 80  1  0
  5 81  1  1
  6 82  1  0
  6 83  1  0
  8 84  1  0
  8 85  1  0
 10 86  1  0
 12 87  1  0
 14 88  1  0
 15 89  1  0
 15 90  1  0
 17 91  1  0
 17 92  1  0
 18 93  1  1
 19 94  1  0
 22 95  1  1
 23 96  1  0
 23 97  1  0
 23 98  1  0
 24 99  1  0
 27100  1  1
 28101  1  0
 28102  1  0
 28103  1  0
 29104  1  0
 32105  1  1
 33106  1  0
 33107  1  0
 33108  1  0
 34109  1  0
 39110  1  0
 40111  1  1
 41112  1  0
 41113  1  0
 41114  1  0
 44115  1  0
 45116  1  6
 46117  1  0
 46118  1  0
 46119  1  0
 49120  1  0
 50121  1  1
 51122  1  0
 51123  1  0
 51124  1  0
 54125  1  0
 55126  1  1
 56127  1  0
 56128  1  0
 56129  1  0
 59130  1  0
 60131  1  1
 61132  1  0
 61133  1  0
 61134  1  0
 64135  1  0
 65136  1  1
 66137  1  0
 66138  1  0
 66139  1  0
 69140  1  0
 70141  1  6
 72142  1  0
 72143  1  0
 74144  1  0
 74145  1  0
 76146  1  0
 76147  1  0
M  END
