
     RDKit          3D

167169  0  0  0  0  0  0  0  0999 V2000
   -9.4277    5.5945    1.1301 C   0  0  0  0  0  0  0  0  0  0  0  0
   -9.6054    5.4401   -0.3525 C   0  0  0  0  0  0  0  0  0  0  0  0
  -10.2277    6.3339   -0.9848 O   0  0  0  0  0  0  0  0  0  0  0  0
   -9.1145    4.2935   -1.0659 N   0  0  0  0  0  0  0  0  0  0  0  0
   -8.3101    3.2098   -0.4816 C   0  0  2  0  0  0  0  0  0  0  0  0
   -6.8531    3.3178   -0.9657 C   0  0  0  0  0  0  0  0  0  0  0  0
   -6.0225    4.7946   -0.2686 S   0  0  0  0  0  0  0  0  0  0  0  0
   -5.2850    3.9642    1.1807 C   0  0  0  0  0  0  0  0  0  0  0  0
   -4.0021    3.2773    0.8042 C   0  0  0  0  0  0  0  0  0  0  0  0
   -2.8607    4.0473    0.5321 C   0  0  0  0  0  0  0  0  0  0  0  0
   -1.6480    3.4327    0.1991 C   0  0  0  0  0  0  0  0  0  0  0  0
   -1.5696    2.0339    0.1712 C   0  0  0  0  0  0  0  0  0  0  0  0
   -2.7017    1.2399    0.4353 C   0  0  0  0  0  0  0  0  0  0  0  0
   -3.9262    1.8769    0.7287 C   0  0  0  0  0  0  0  0  0  0  0  0
   -2.6127   -0.2567    0.2161 C   0  0  0  0  0  0  0  0  0  0  0  0
   -3.7073   -1.2113    1.3468 S   0  0  0  0  0  0  0  0  0  0  0  0
   -4.3949   -2.3647    0.0855 C   0  0  0  0  0  0  0  0  0  0  0  0
   -3.4683   -3.5730   -0.1596 C   0  0  2  0  0  0  0  0  0  0  0  0
   -3.7794   -4.2151   -1.4459 N   0  0  0  0  0  0  0  0  0  0  0  0
   -4.9320   -5.0400   -1.6795 C   0  0  0  0  0  0  0  0  0  0  0  0
   -4.7627   -6.2583   -1.9565 O   0  0  0  0  0  0  0  0  0  0  0  0
   -6.3268   -4.4601   -1.7392 C   0  0  1  0  0  0  0  0  0  0  0  0
   -6.9240   -4.6644   -3.1388 C   0  0  0  0  0  0  0  0  0  0  0  0
   -7.1825   -5.1015   -0.7327 N   0  0  0  0  0  0  0  0  0  0  0  0
   -8.3455   -4.5038   -0.1376 C   0  0  0  0  0  0  0  0  0  0  0  0
   -8.9971   -5.1757    0.7107 O   0  0  0  0  0  0  0  0  0  0  0  0
   -8.7534   -3.0649   -0.4088 C   0  0  1  0  0  0  0  0  0  0  0  0
  -10.2801   -2.9078   -0.3827 C   0  0  0  0  0  0  0  0  0  0  0  0
   -8.1463   -2.1812    0.5857 N   0  0  0  0  0  0  0  0  0  0  0  0
   -8.0156   -0.7816    0.3527 C   0  0  0  0  0  0  0  0  0  0  0  0
   -7.0417   -0.3506   -0.3320 O   0  0  0  0  0  0  0  0  0  0  0  0
   -8.9665    0.1804    1.0144 C   0  0  1  0  0  0  0  0  0  0  0  0
   -8.2599    0.9738    2.1146 C   0  0  0  0  0  0  0  0  0  0  0  0
   -9.6131    1.0591    0.0271 N   0  0  0  0  0  0  0  0  0  0  0  0
   -8.8985    1.8855   -0.9030 C   0  0  0  0  0  0  0  0  0  0  0  0
   -8.8708    1.5568   -2.1181 O   0  0  0  0  0  0  0  0  0  0  0  0
   -3.5027   -4.5942    0.9628 C   0  0  0  0  0  0  0  0  0  0  0  0
   -4.2613   -4.4072    1.9555 O   0  0  0  0  0  0  0  0  0  0  0  0
   -2.6959   -5.7878    0.9352 N   0  0  0  0  0  0  0  0  0  0  0  0
   -1.4400   -5.9403    0.1866 C   0  0  2  0  0  0  0  0  0  0  0  0
   -1.4673   -7.2486   -0.6046 C   0  0  0  0  0  0  0  0  0  0  0  0
   -0.2550   -5.9427    1.1248 C   0  0  0  0  0  0  0  0  0  0  0  0
   -0.4201   -6.1518    2.3590 O   0  0  0  0  0  0  0  0  0  0  0  0
    1.0610   -5.7040    0.6080 N   0  0  0  0  0  0  0  0  0  0  0  0
    2.1773   -6.6174    0.8928 C   0  0  2  0  0  0  0  0  0  0  0  0
    2.5546   -6.6118    2.3818 C   0  0  0  0  0  0  0  0  0  0  0  0
    3.3690   -6.2494    0.0408 C   0  0  0  0  0  0  0  0  0  0  0  0
    3.6883   -7.0027   -0.9136 O   0  0  0  0  0  0  0  0  0  0  0  0
    4.1204   -5.0497    0.3129 N   0  0  0  0  0  0  0  0  0  0  0  0
    5.4377   -4.7312   -0.2634 C   0  0  2  0  0  0  0  0  0  0  0  0
    5.3734   -4.6740   -1.7948 C   0  0  0  0  0  0  0  0  0  0  0  0
    6.4892   -5.7050    0.2148 C   0  0  0  0  0  0  0  0  0  0  0  0
    6.2259   -6.9366    0.2583 O   0  0  0  0  0  0  0  0  0  0  0  0
    7.7906   -5.2740    0.6320 N   0  0  0  0  0  0  0  0  0  0  0  0
    8.5914   -4.2939   -0.1137 C   0  0  2  0  0  0  0  0  0  0  0  0
    9.1782   -4.9734   -1.3601 C   0  0  0  0  0  0  0  0  0  0  0  0
    9.7000   -3.7752    0.7750 C   0  0  0  0  0  0  0  0  0  0  0  0
   10.5374   -4.5991    1.2446 O   0  0  0  0  0  0  0  0  0  0  0  0
    9.8168   -2.3919    1.1601 N   0  0  0  0  0  0  0  0  0  0  0  0
    9.4804   -1.2499    0.2919 C   0  0  2  0  0  0  0  0  0  0  0  0
   10.2929   -1.3100   -1.0062 C   0  0  0  0  0  0  0  0  0  0  0  0
    9.7801    0.0648    0.9822 C   0  0  0  0  0  0  0  0  0  0  0  0
   10.8142    0.1546    1.6973 O   0  0  0  0  0  0  0  0  0  0  0  0
    9.0128    1.2584    0.7472 N   0  0  0  0  0  0  0  0  0  0  0  0
    7.6492    1.3002    0.1966 C   0  0  2  0  0  0  0  0  0  0  0  0
    7.6553    1.1144   -1.3308 C   0  0  0  0  0  0  0  0  0  0  0  0
    7.0095    2.6169    0.5757 C   0  0  0  0  0  0  0  0  0  0  0  0
    6.2186    2.6512    1.5572 O   0  0  0  0  0  0  0  0  0  0  0  0
    7.3525    3.8268   -0.1180 N   0  0  0  0  0  0  0  0  0  0  0  0
    7.4361    5.1397    0.5263 C   0  0  2  0  0  0  0  0  0  0  0  0
    8.5077    5.1186    1.6247 C   0  0  0  0  0  0  0  0  0  0  0  0
    6.0813    5.5755    1.0275 C   0  0  0  0  0  0  0  0  0  0  0  0
    5.9033    5.8634    2.2428 O   0  0  0  0  0  0  0  0  0  0  0  0
    4.9729    5.6206    0.1211 N   0  0  0  0  0  0  0  0  0  0  0  0
    4.5507    6.8541   -0.5422 C   0  0  2  0  0  0  0  0  0  0  0  0
    5.7135    7.5154   -1.2964 C   0  0  0  0  0  0  0  0  0  0  0  0
    3.9324    7.7989    0.4673 C   0  0  0  0  0  0  0  0  0  0  0  0
    4.6841    8.5584    1.1419 O   0  0  0  0  0  0  0  0  0  0  0  0
    2.5186    7.8156    0.7347 N   0  0  0  0  0  0  0  0  0  0  0  0
    1.5281    6.9372    0.0961 C   0  0  2  0  0  0  0  0  0  0  0  0
    1.0162    7.5976   -1.1587 C   0  0  0  0  0  0  0  0  0  0  0  0
    0.4238    8.8952   -1.1075 N   0  0  0  0  0  0  0  0  0  0  0  0
    1.1144    7.0025   -2.2653 O   0  0  0  0  0  0  0  0  0  0  0  0
    0.3633    6.6272    1.0752 C   0  0  0  0  0  0  0  0  0  0  0  0
    0.2867    4.8463    1.4884 S   0  0  0  0  0  0  0  0  0  0  0  0
   -0.4412    4.2771   -0.0879 C   0  0  0  0  0  0  0  0  0  0  0  0
   -8.3526    5.5602    1.3938 H   0  0  0  0  0  0  0  0  0  0  0  0
   -9.9561    4.7737    1.6603 H   0  0  0  0  0  0  0  0  0  0  0  0
   -9.8398    6.5653    1.4762 H   0  0  0  0  0  0  0  0  0  0  0  0
   -9.2657    4.2750   -2.1005 H   0  0  0  0  0  0  0  0  0  0  0  0
   -8.3368    3.2693    0.6206 H   0  0  0  0  0  0  0  0  0  0  0  0
   -6.8398    3.4157   -2.0744 H   0  0  0  0  0  0  0  0  0  0  0  0
   -6.2931    2.3955   -0.7102 H   0  0  0  0  0  0  0  0  0  0  0  0
   -6.0118    3.2642    1.6327 H   0  0  0  0  0  0  0  0  0  0  0  0
   -5.0709    4.7351    1.9478 H   0  0  0  0  0  0  0  0  0  0  0  0
   -2.9225    5.1302    0.5690 H   0  0  0  0  0  0  0  0  0  0  0  0
   -0.6350    1.5633   -0.0979 H   0  0  0  0  0  0  0  0  0  0  0  0
   -4.8139    1.2833    0.8950 H   0  0  0  0  0  0  0  0  0  0  0  0
   -1.5722   -0.6021    0.4041 H   0  0  0  0  0  0  0  0  0  0  0  0
   -2.8243   -0.4691   -0.8562 H   0  0  0  0  0  0  0  0  0  0  0  0
   -5.3809   -2.7106    0.4579 H   0  0  0  0  0  0  0  0  0  0  0  0
   -4.5831   -1.8192   -0.8603 H   0  0  0  0  0  0  0  0  0  0  0  0
   -2.4346   -3.1673   -0.2230 H   0  0  0  0  0  0  0  0  0  0  0  0
   -2.9958   -4.3117   -2.1314 H   0  0  0  0  0  0  0  0  0  0  0  0
   -6.2648   -3.3733   -1.5536 H   0  0  0  0  0  0  0  0  0  0  0  0
   -6.2613   -4.2096   -3.9057 H   0  0  0  0  0  0  0  0  0  0  0  0
   -7.9258   -4.1863   -3.2106 H   0  0  0  0  0  0  0  0  0  0  0  0
   -7.0419   -5.7483   -3.3592 H   0  0  0  0  0  0  0  0  0  0  0  0
   -7.0134   -6.1128   -0.5206 H   0  0  0  0  0  0  0  0  0  0  0  0
   -8.4154   -2.7630   -1.4244 H   0  0  0  0  0  0  0  0  0  0  0  0
  -10.6831   -3.1385    0.6261 H   0  0  0  0  0  0  0  0  0  0  0  0
  -10.5576   -1.8671   -0.6419 H   0  0  0  0  0  0  0  0  0  0  0  0
  -10.7449   -3.5870   -1.1264 H   0  0  0  0  0  0  0  0  0  0  0  0
   -7.7764   -2.5662    1.4886 H   0  0  0  0  0  0  0  0  0  0  0  0
   -9.7649   -0.4187    1.5036 H   0  0  0  0  0  0  0  0  0  0  0  0
   -8.9232    1.7793    2.4917 H   0  0  0  0  0  0  0  0  0  0  0  0
   -7.3138    1.4096    1.7345 H   0  0  0  0  0  0  0  0  0  0  0  0
   -8.0130    0.2940    2.9601 H   0  0  0  0  0  0  0  0  0  0  0  0
  -10.6079    0.8414   -0.2155 H   0  0  0  0  0  0  0  0  0  0  0  0
   -2.9462   -6.5440    1.6128 H   0  0  0  0  0  0  0  0  0  0  0  0
   -1.3145   -5.1094   -0.5325 H   0  0  0  0  0  0  0  0  0  0  0  0
   -1.5580   -8.1154    0.0849 H   0  0  0  0  0  0  0  0  0  0  0  0
   -2.3343   -7.2487   -1.3012 H   0  0  0  0  0  0  0  0  0  0  0  0
   -0.5368   -7.3606   -1.2031 H   0  0  0  0  0  0  0  0  0  0  0  0
    1.1139   -5.1287   -0.2616 H   0  0  0  0  0  0  0  0  0  0  0  0
    1.8616   -7.6532    0.6239 H   0  0  0  0  0  0  0  0  0  0  0  0
    2.5748   -5.5752    2.7871 H   0  0  0  0  0  0  0  0  0  0  0  0
    3.5469   -7.0915    2.5452 H   0  0  0  0  0  0  0  0  0  0  0  0
    1.8011   -7.2000    2.9507 H   0  0  0  0  0  0  0  0  0  0  0  0
    3.7054   -4.3554    0.9740 H   0  0  0  0  0  0  0  0  0  0  0  0
    5.7151   -3.7122    0.0943 H   0  0  0  0  0  0  0  0  0  0  0  0
    6.2257   -4.0781   -2.1921 H   0  0  0  0  0  0  0  0  0  0  0  0
    4.4317   -4.1791   -2.1213 H   0  0  0  0  0  0  0  0  0  0  0  0
    5.4212   -5.6908   -2.2386 H   0  0  0  0  0  0  0  0  0  0  0  0
    8.3083   -5.9358    1.2541 H   0  0  0  0  0  0  0  0  0  0  0  0
    7.9484   -3.4570   -0.4430 H   0  0  0  0  0  0  0  0  0  0  0  0
    9.8066   -5.8441   -1.0745 H   0  0  0  0  0  0  0  0  0  0  0  0
    8.3584   -5.3370   -2.0196 H   0  0  0  0  0  0  0  0  0  0  0  0
    9.7984   -4.2635   -1.9508 H   0  0  0  0  0  0  0  0  0  0  0  0
   10.2948   -2.2150    2.0703 H   0  0  0  0  0  0  0  0  0  0  0  0
    8.3990   -1.3022    0.0674 H   0  0  0  0  0  0  0  0  0  0  0  0
   11.3472   -1.6001   -0.7917 H   0  0  0  0  0  0  0  0  0  0  0  0
   10.3022   -0.3245   -1.5180 H   0  0  0  0  0  0  0  0  0  0  0  0
    9.8361   -2.0359   -1.7066 H   0  0  0  0  0  0  0  0  0  0  0  0
    9.4276    2.1499    1.1057 H   0  0  0  0  0  0  0  0  0  0  0  0
    7.0462    0.4819    0.6543 H   0  0  0  0  0  0  0  0  0  0  0  0
    7.8241    0.0566   -1.6146 H   0  0  0  0  0  0  0  0  0  0  0  0
    8.4594    1.7285   -1.7919 H   0  0  0  0  0  0  0  0  0  0  0  0
    6.6738    1.4131   -1.7633 H   0  0  0  0  0  0  0  0  0  0  0  0
    7.5291    3.7847   -1.1553 H   0  0  0  0  0  0  0  0  0  0  0  0
    7.7632    5.8787   -0.2341 H   0  0  0  0  0  0  0  0  0  0  0  0
    9.4762    4.7883    1.1843 H   0  0  0  0  0  0  0  0  0  0  0  0
    8.2284    4.4206    2.4413 H   0  0  0  0  0  0  0  0  0  0  0  0
    8.6428    6.1418    2.0422 H   0  0  0  0  0  0  0  0  0  0  0  0
    4.2478    4.8751    0.2378 H   0  0  0  0  0  0  0  0  0  0  0  0
    3.8023    6.5975   -1.3187 H   0  0  0  0  0  0  0  0  0  0  0  0
    5.3350    8.3846   -1.8791 H   0  0  0  0  0  0  0  0  0  0  0  0
    6.1615    6.7863   -2.0081 H   0  0  0  0  0  0  0  0  0  0  0  0
    6.5012    7.8727   -0.6014 H   0  0  0  0  0  0  0  0  0  0  0  0
    2.1693    8.5864    1.3474 H   0  0  0  0  0  0  0  0  0  0  0  0
    2.0119    5.9789   -0.1805 H   0  0  0  0  0  0  0  0  0  0  0  0
    0.3471    9.4039   -0.2042 H   0  0  0  0  0  0  0  0  0  0  0  0
    0.1179    9.3733   -1.9809 H   0  0  0  0  0  0  0  0  0  0  0  0
   -0.6211    6.9472    0.6713 H   0  0  0  0  0  0  0  0  0  0  0  0
    0.4976    7.1779    2.0297 H   0  0  0  0  0  0  0  0  0  0  0  0
    0.3216    3.6898   -0.6350 H   0  0  0  0  0  0  0  0  0  0  0  0
   -0.7265    5.1256   -0.7449 H   0  0  0  0  0  0  0  0  0  0  0  0
  1  2  1  0
  2  3  2  0
  2  4  1  0
  4  5  1  0
  5  6  1  0
  6  7  1  0
  7  8  1  0
  8  9  1  0
  9 10  1  0
 10 11  2  0
 11 12  1  0
 12 13  2  0
 13 14  1  0
 13 15  1  0
 15 16  1  0
 16 17  1  0
 17 18  1  0
 18 19  1  0
 19 20  1  0
 20 21  2  0
 20 22  1  0
 22 23  1  0
 22 24  1  0
 24 25  1  0
 25 26  2  0
 25 27  1  0
 27 28  1  0
 27 29  1  0
 29 30  1  0
 30 31  2  0
 30 32  1  0
 32 33  1  0
 32 34  1  0
 34 35  1  0
 35 36  2  0
 18 37  1  0
 37 38  2  0
 37 39  1  0
 39 40  1  0
 40 41  1  0
 40 42  1  0
 42 43  2  0
 42 44  1  0
 44 45  1  0
 45 46  1  0
 45 47  1  0
 47 48  2  0
 47 49  1  0
 49 50  1  0
 50 51  1  0
 50 52  1  0
 52 53  2  0
 52 54  1  0
 54 55  1  0
 55 56  1  0
 55 57  1  0
 57 58  2  0
 57 59  1  0
 59 60  1  0
 60 61  1  0
 60 62  1  0
 62 63  2  0
 62 64  1  0
 64 65  1  0
 65 66  1  0
 65 67  1  0
 67 68  2  0
 67 69  1  0
 69 70  1  0
 70 71  1  0
 70 72  1  0
 72 73  2  0
 72 74  1  0
 74 75  1  0
 75 76  1  0
 75 77  1  0
 77 78  2  0
 77 79  1  0
 79 80  1  0
 80 81  1  0
 81 82  1  0
 81 83  2  0
 80 84  1  0
 84 85  1  0
 85 86  1  0
 35  5  1  0
 14  9  2  0
 86 11  1  0
  1 87  1  0
  1 88  1  0
  1 89  1  0
  4 90  1  0
  5 91  1  1
  6 92  1  0
  6 93  1  0
  8 94  1  0
  8 95  1  0
 10 96  1  0
 12 97  1  0
 14 98  1  0
 15 99  1  0
 15100  1  0
 17101  1  0
 17102  1  0
 18103  1  6
 19104  1  0
 22105  1  1
 23106  1  0
 23107  1  0
 23108  1  0
 24109  1  0
 27110  1  6
 28111  1  0
 28112  1  0
 28113  1  0
 29114  1  0
 32115  1  1
 33116  1  0
 33117  1  0
 33118  1  0
 34119  1  0
 39120  1  0
 40121  1  6
 41122  1  0
 41123  1  0
 41124  1  0
 44125  1  0
 45126  1  6
 46127  1  0
 46128  1  0
 46129  1  0
 49130  1  0
 50131  1  1
 51132  1  0
 51133  1  0
 51134  1  0
 54135  1  0
 55136  1  6
 56137  1  0
 56138  1  0
 56139  1  0
 59140  1  0
 60141  1  6
 61142  1  0
 61143  1  0
 61144  1  0
 64145  1  0
 65146  1  1
 66147  1  0
 66148  1  0
 66149  1  0
 69150  1  0
 70151  1  6
 71152  1  0
 71153  1  0
 71154  1  0
 74155  1  0
 75156  1  6
 76157  1  0
 76158  1  0
 76159  1  0
 79160  1  0
 80161  1  6
 82162  1  0
 82163  1  0
 84164  1  0
 84165  1  0
 86166  1  0
 86167  1  0
M  END
