
     RDKit          3D

137139  0  0  0  0  0  0  0  0999 V2000
  -11.5668   -0.9935   -0.0545 C   0  0  0  0  0  0  0  0  0  0  0  0
  -10.3842   -0.8189    0.8435 C   0  0  0  0  0  0  0  0  0  0  0  0
  -10.5409   -0.9349    2.0879 O   0  0  0  0  0  0  0  0  0  0  0  0
   -9.0902   -0.5248    0.2917 N   0  0  0  0  0  0  0  0  0  0  0  0
   -7.8529   -0.4714    1.0793 C   0  0  2  0  0  0  0  0  0  0  0  0
   -7.4998   -1.8598    1.6574 C   0  0  0  0  0  0  0  0  0  0  0  0
   -7.5854   -3.1522    0.3578 S   0  0  0  0  0  0  0  0  0  0  0  0
   -6.1673   -4.1563    0.9432 C   0  0  0  0  0  0  0  0  0  0  0  0
   -4.8200   -3.7576    0.3660 C   0  0  0  0  0  0  0  0  0  0  0  0
   -4.6057   -2.5439   -0.3151 C   0  0  0  0  0  0  0  0  0  0  0  0
   -3.3335   -2.2093   -0.8257 C   0  0  0  0  0  0  0  0  0  0  0  0
   -2.2829   -3.1294   -0.6722 C   0  0  0  0  0  0  0  0  0  0  0  0
   -2.4804   -4.3377    0.0092 C   0  0  0  0  0  0  0  0  0  0  0  0
   -3.7437   -4.6427    0.5267 C   0  0  0  0  0  0  0  0  0  0  0  0
   -1.3575   -5.3258    0.1312 C   0  0  0  0  0  0  0  0  0  0  0  0
   -1.2620   -6.3384   -1.3925 S   0  0  0  0  0  0  0  0  0  0  0  0
    0.4358   -5.8492   -1.8721 C   0  0  0  0  0  0  0  0  0  0  0  0
    1.4884   -6.6469   -1.0767 C   0  0  1  0  0  0  0  0  0  0  0  0
    1.6706   -8.0314   -1.6492 C   0  0  0  0  0  0  0  0  0  0  0  0
    1.4433   -9.1851   -0.8445 N   0  0  0  0  0  0  0  0  0  0  0  0
    2.0775   -8.1706   -2.8361 O   0  0  0  0  0  0  0  0  0  0  0  0
    2.7715   -5.9403   -1.0650 N   0  0  0  0  0  0  0  0  0  0  0  0
    3.7620   -6.2326   -0.0760 C   0  0  0  0  0  0  0  0  0  0  0  0
    3.9875   -7.4339    0.2505 O   0  0  0  0  0  0  0  0  0  0  0  0
    4.5712   -5.1120    0.5248 C   0  0  1  0  0  0  0  0  0  0  0  0
    5.1427   -5.5180    1.8937 C   0  0  0  0  0  0  0  0  0  0  0  0
    5.6531   -4.7179   -0.3851 N   0  0  0  0  0  0  0  0  0  0  0  0
    6.3152   -3.4375   -0.3809 C   0  0  0  0  0  0  0  0  0  0  0  0
    7.2078   -3.2203   -1.2492 O   0  0  0  0  0  0  0  0  0  0  0  0
    6.0174   -2.3535    0.6381 C   0  0  1  0  0  0  0  0  0  0  0  0
    7.2529   -2.0697    1.4991 C   0  0  0  0  0  0  0  0  0  0  0  0
    5.4864   -1.1450   -0.0112 N   0  0  0  0  0  0  0  0  0  0  0  0
    6.2197   -0.3304   -0.9367 C   0  0  0  0  0  0  0  0  0  0  0  0
    5.8592   -0.3073   -2.1428 O   0  0  0  0  0  0  0  0  0  0  0  0
    7.3164    0.5950   -0.4733 C   0  0  1  0  0  0  0  0  0  0  0  0
    8.6107    0.3233   -1.2411 C   0  0  0  0  0  0  0  0  0  0  0  0
    6.9071    1.9863   -0.6741 N   0  0  0  0  0  0  0  0  0  0  0  0
    7.1953    2.9854    0.3080 C   0  0  0  0  0  0  0  0  0  0  0  0
    8.2576    3.6579    0.2125 O   0  0  0  0  0  0  0  0  0  0  0  0
    6.2345    3.2463    1.4356 C   0  0  1  0  0  0  0  0  0  0  0  0
    6.6595    2.4888    2.6930 C   0  0  0  0  0  0  0  0  0  0  0  0
    6.1774    4.6825    1.7248 N   0  0  0  0  0  0  0  0  0  0  0  0
    4.9321    5.3729    1.8641 C   0  0  0  0  0  0  0  0  0  0  0  0
    4.5295    5.6797    3.0195 O   0  0  0  0  0  0  0  0  0  0  0  0
    4.1729    5.8764    0.6631 C   0  0  1  0  0  0  0  0  0  0  0  0
    4.6882    7.2574    0.2635 C   0  0  0  0  0  0  0  0  0  0  0  0
    4.3007    4.9566   -0.4717 N   0  0  0  0  0  0  0  0  0  0  0  0
    3.1945    4.3860   -1.1877 C   0  0  0  0  0  0  0  0  0  0  0  0
    3.3748    3.3117   -1.8270 O   0  0  0  0  0  0  0  0  0  0  0  0
    1.8425    5.0555   -1.2336 C   0  0  1  0  0  0  0  0  0  0  0  0
    1.2818    5.0718   -2.6656 C   0  0  0  0  0  0  0  0  0  0  0  0
    0.9438    4.4117   -0.2631 N   0  0  0  0  0  0  0  0  0  0  0  0
   -0.3113    3.8017   -0.6026 C   0  0  0  0  0  0  0  0  0  0  0  0
   -0.3209    2.7910   -1.3575 O   0  0  0  0  0  0  0  0  0  0  0  0
   -1.6232    4.3572   -0.1001 C   0  0  1  0  0  0  0  0  0  0  0  0
   -1.4355    5.4936    0.9101 C   0  0  0  0  0  0  0  0  0  0  0  0
   -2.3949    4.8555   -1.2456 N   0  0  0  0  0  0  0  0  0  0  0  0
   -3.6257    4.3130   -1.7651 C   0  0  0  0  0  0  0  0  0  0  0  0
   -4.1883    4.9244   -2.7163 O   0  0  0  0  0  0  0  0  0  0  0  0
   -4.2928    3.0564   -1.2426 C   0  0  1  0  0  0  0  0  0  0  0  0
   -3.4091    1.8021   -1.4279 C   0  0  0  0  0  0  0  0  0  0  0  0
   -4.4345    0.2952   -1.5374 S   0  0  0  0  0  0  0  0  0  0  0  0
   -3.0523   -0.9186   -1.5700 C   0  0  0  0  0  0  0  0  0  0  0  0
   -4.7167    3.2342    0.1512 N   0  0  0  0  0  0  0  0  0  0  0  0
   -5.6401    2.3427    0.7819 C   0  0  0  0  0  0  0  0  0  0  0  0
   -5.1932    1.3506    1.4193 O   0  0  0  0  0  0  0  0  0  0  0  0
   -7.1209    2.6401    0.7415 C   0  0  1  0  0  0  0  0  0  0  0  0
   -7.7511    2.3265   -0.6214 C   0  0  0  0  0  0  0  0  0  0  0  0
   -7.8469    2.0062    1.8552 N   0  0  0  0  0  0  0  0  0  0  0  0
   -7.9455    0.5990    2.1501 C   0  0  0  0  0  0  0  0  0  0  0  0
   -8.1797    0.2604    3.3406 O   0  0  0  0  0  0  0  0  0  0  0  0
  -11.9926   -2.0070    0.0755 H   0  0  0  0  0  0  0  0  0  0  0  0
  -11.2766   -0.8599   -1.1155 H   0  0  0  0  0  0  0  0  0  0  0  0
  -12.3364   -0.2345    0.1985 H   0  0  0  0  0  0  0  0  0  0  0  0
   -9.0101   -0.4082   -0.7473 H   0  0  0  0  0  0  0  0  0  0  0  0
   -7.0143   -0.2159    0.4049 H   0  0  0  0  0  0  0  0  0  0  0  0
   -8.2013   -2.1472    2.4662 H   0  0  0  0  0  0  0  0  0  0  0  0
   -6.4759   -1.8084    2.0886 H   0  0  0  0  0  0  0  0  0  0  0  0
   -6.3824   -5.2056    0.6362 H   0  0  0  0  0  0  0  0  0  0  0  0
   -6.1205   -4.1554    2.0560 H   0  0  0  0  0  0  0  0  0  0  0  0
   -5.4265   -1.8629   -0.4457 H   0  0  0  0  0  0  0  0  0  0  0  0
   -1.3089   -2.9012   -1.0882 H   0  0  0  0  0  0  0  0  0  0  0  0
   -3.8997   -5.5910    1.0308 H   0  0  0  0  0  0  0  0  0  0  0  0
   -0.4055   -4.7979    0.3623 H   0  0  0  0  0  0  0  0  0  0  0  0
   -1.5371   -6.0146    0.9845 H   0  0  0  0  0  0  0  0  0  0  0  0
    0.5571   -6.0246   -2.9648 H   0  0  0  0  0  0  0  0  0  0  0  0
    0.5637   -4.7565   -1.7133 H   0  0  0  0  0  0  0  0  0  0  0  0
    1.1408   -6.7321   -0.0246 H   0  0  0  0  0  0  0  0  0  0  0  0
    1.1000   -9.0954    0.1374 H   0  0  0  0  0  0  0  0  0  0  0  0
    1.7024  -10.1321   -1.2011 H   0  0  0  0  0  0  0  0  0  0  0  0
    2.9402   -5.1380   -1.7241 H   0  0  0  0  0  0  0  0  0  0  0  0
    3.8726   -4.2628    0.6624 H   0  0  0  0  0  0  0  0  0  0  0  0
    5.6685   -4.6704    2.3790 H   0  0  0  0  0  0  0  0  0  0  0  0
    4.3202   -5.8376    2.5705 H   0  0  0  0  0  0  0  0  0  0  0  0
    5.8669   -6.3540    1.7861 H   0  0  0  0  0  0  0  0  0  0  0  0
    6.0240   -5.4390   -1.0434 H   0  0  0  0  0  0  0  0  0  0  0  0
    5.2419   -2.6933    1.3472 H   0  0  0  0  0  0  0  0  0  0  0  0
    7.0402   -1.2522    2.2202 H   0  0  0  0  0  0  0  0  0  0  0  0
    7.5237   -2.9776    2.0819 H   0  0  0  0  0  0  0  0  0  0  0  0
    8.1282   -1.8023    0.8730 H   0  0  0  0  0  0  0  0  0  0  0  0
    4.4485   -1.1145   -0.1087 H   0  0  0  0  0  0  0  0  0  0  0  0
    7.5127    0.4291    0.5998 H   0  0  0  0  0  0  0  0  0  0  0  0
    8.4815    0.5521   -2.3220 H   0  0  0  0  0  0  0  0  0  0  0  0
    9.4257    0.9605   -0.8400 H   0  0  0  0  0  0  0  0  0  0  0  0
    8.9113   -0.7415   -1.1368 H   0  0  0  0  0  0  0  0  0  0  0  0
    6.6963    2.3127   -1.6442 H   0  0  0  0  0  0  0  0  0  0  0  0
    5.2246    2.8806    1.1402 H   0  0  0  0  0  0  0  0  0  0  0  0
    5.9752    2.7418    3.5353 H   0  0  0  0  0  0  0  0  0  0  0  0
    7.6974    2.7636    2.9866 H   0  0  0  0  0  0  0  0  0  0  0  0
    6.6037    1.3921    2.5265 H   0  0  0  0  0  0  0  0  0  0  0  0
    7.0295    5.1478    2.1116 H   0  0  0  0  0  0  0  0  0  0  0  0
    3.1104    5.9763    0.9648 H   0  0  0  0  0  0  0  0  0  0  0  0
    4.0985    7.6467   -0.5950 H   0  0  0  0  0  0  0  0  0  0  0  0
    4.5787    7.9686    1.1101 H   0  0  0  0  0  0  0  0  0  0  0  0
    5.7573    7.2034   -0.0333 H   0  0  0  0  0  0  0  0  0  0  0  0
    5.2591    4.7091   -0.8065 H   0  0  0  0  0  0  0  0  0  0  0  0
    1.9494    6.1221   -0.9485 H   0  0  0  0  0  0  0  0  0  0  0  0
    0.3024    5.5964   -2.6837 H   0  0  0  0  0  0  0  0  0  0  0  0
    1.1549    4.0418   -3.0678 H   0  0  0  0  0  0  0  0  0  0  0  0
    1.9758    5.6292   -3.3348 H   0  0  0  0  0  0  0  0  0  0  0  0
    1.1881    4.4847    0.7526 H   0  0  0  0  0  0  0  0  0  0  0  0
   -2.1565    3.5474    0.4271 H   0  0  0  0  0  0  0  0  0  0  0  0
   -0.8905    5.1301    1.8084 H   0  0  0  0  0  0  0  0  0  0  0  0
   -2.4250    5.8735    1.2458 H   0  0  0  0  0  0  0  0  0  0  0  0
   -0.8712    6.3369    0.4563 H   0  0  0  0  0  0  0  0  0  0  0  0
   -2.0131    5.6939   -1.7378 H   0  0  0  0  0  0  0  0  0  0  0  0
   -5.2089    2.9107   -1.8600 H   0  0  0  0  0  0  0  0  0  0  0  0
   -2.7075    1.6910   -0.5781 H   0  0  0  0  0  0  0  0  0  0  0  0
   -2.8202    1.8837   -2.3693 H   0  0  0  0  0  0  0  0  0  0  0  0
   -2.8337   -1.1557   -2.6315 H   0  0  0  0  0  0  0  0  0  0  0  0
   -2.1333   -0.4671   -1.1391 H   0  0  0  0  0  0  0  0  0  0  0  0
   -4.3981    4.0654    0.7068 H   0  0  0  0  0  0  0  0  0  0  0  0
   -7.2213    3.7399    0.8777 H   0  0  0  0  0  0  0  0  0  0  0  0
   -7.3404    1.3992   -1.0692 H   0  0  0  0  0  0  0  0  0  0  0  0
   -7.5395    3.1534   -1.3311 H   0  0  0  0  0  0  0  0  0  0  0  0
   -8.8547    2.2385   -0.5262 H   0  0  0  0  0  0  0  0  0  0  0  0
   -8.1952    2.6557    2.5965 H   0  0  0  0  0  0  0  0  0  0  0  0
  1  2  1  0
  2  3  2  0
  2  4  1  0
  4  5  1  0
  5  6  1  0
  6  7  1  0
  7  8  1  0
  8  9  1  0
  9 10  1  0
 10 11  2  0
 11 12  1  0
 12 13  2  0
 13 14  1  0
 13 15  1  0
 15 16  1  0
 16 17  1  0
 17 18  1  0
 18 19  1  0
 19 20  1  0
 19 21  2  0
 18 22  1  0
 22 23  1  0
 23 24  2  0
 23 25  1  0
 25 26  1  0
 25 27  1  0
 27 28  1  0
 28 29  2  0
 28 30  1  0
 30 31  1  0
 30 32  1  0
 32 33  1  0
 33 34  2  0
 33 35  1  0
 35 36  1  0
 35 37  1  0
 37 38  1  0
 38 39  2  0
 38 40  1  0
 40 41  1  0
 40 42  1  0
 42 43  1  0
 43 44  2  0
 43 45  1  0
 45 46  1  0
 45 47  1  0
 47 48  1  0
 48 49  2  0
 48 50  1  0
 50 51  1  0
 50 52  1  0
 52 53  1  0
 53 54  2  0
 53 55  1  0
 55 56  1  0
 55 57  1  0
 57 58  1  0
 58 59  2  0
 58 60  1  0
 60 61  1  0
 61 62  1  0
 62 63  1  0
 60 64  1  0
 64 65  1  0
 65 66  2  0
 65 67  1  0
 67 68  1  0
 67 69  1  0
 69 70  1  0
 70 71  2  0
 70  5  1  0
 14  9  2  0
 63 11  1  0
  1 72  1  0
  1 73  1  0
  1 74  1  0
  4 75  1  0
  5 76  1  6
  6 77  1  0
  6 78  1  0
  8 79  1  0
  8 80  1  0
 10 81  1  0
 12 82  1  0
 14 83  1  0
 15 84  1  0
 15 85  1  0
 17 86  1  0
 17 87  1  0
 18 88  1  1
 20 89  1  0
 20 90  1  0
 22 91  1  0
 25 92  1  1
 26 93  1  0
 26 94  1  0
 26 95  1  0
 27 96  1  0
 30 97  1  1
 31 98  1  0
 31 99  1  0
 31100  1  0
 32101  1  0
 35102  1  1
 36103  1  0
 36104  1  0
 36105  1  0
 37106  1  0
 40107  1  6
 41108  1  0
 41109  1  0
 41110  1  0
 42111  1  0
 45112  1  1
 46113  1  0
 46114  1  0
 46115  1  0
 47116  1  0
 50117  1  1
 51118  1  0
 51119  1  0
 51120  1  0
 52121  1  0
 55122  1  1
 56123  1  0
 56124  1  0
 56125  1  0
 57126  1  0
 60127  1  6
 61128  1  0
 61129  1  0
 63130  1  0
 63131  1  0
 64132  1  0
 67133  1  1
 68134  1  0
 68135  1  0
 68136  1  0
 69137  1  0
M  END
