
     RDKit          3D

187189  0  0  0  0  0  0  0  0999 V2000
  -11.0346   -5.5818   -0.5148 C   0  0  0  0  0  0  0  0  0  0  0  0
  -10.9087   -5.2182    0.9342 C   0  0  0  0  0  0  0  0  0  0  0  0
  -10.6895   -6.0781    1.8376 O   0  0  0  0  0  0  0  0  0  0  0  0
  -10.9943   -3.8459    1.2969 N   0  0  0  0  0  0  0  0  0  0  0  0
   -9.9487   -2.9467    0.8952 C   0  0  2  0  0  0  0  0  0  0  0  0
   -8.6578   -3.1349    1.8065 C   0  0  0  0  0  0  0  0  0  0  0  0
   -7.6584   -4.5006    1.0479 S   0  0  0  0  0  0  0  0  0  0  0  0
   -5.9650   -3.7644    1.2129 C   0  0  0  0  0  0  0  0  0  0  0  0
   -5.5033   -3.3093   -0.1689 C   0  0  0  0  0  0  0  0  0  0  0  0
   -4.5090   -4.0108   -0.7977 C   0  0  0  0  0  0  0  0  0  0  0  0
   -3.5227   -3.3904   -1.5693 C   0  0  0  0  0  0  0  0  0  0  0  0
   -3.7358   -2.0496   -1.9003 C   0  0  0  0  0  0  0  0  0  0  0  0
   -4.4299   -1.2436   -1.0070 C   0  0  0  0  0  0  0  0  0  0  0  0
   -5.5648   -1.9438   -0.5196 C   0  0  0  0  0  0  0  0  0  0  0  0
   -3.5736   -0.8498    0.1730 C   0  0  0  0  0  0  0  0  0  0  0  0
   -2.6758    0.7228   -0.1749 S   0  0  0  0  0  0  0  0  0  0  0  0
   -4.1811    1.7328   -0.7208 C   0  0  0  0  0  0  0  0  0  0  0  0
   -4.0177    3.1720   -0.1273 C   0  0  2  0  0  0  0  0  0  0  0  0
   -5.0004    3.3022    1.0060 N   0  0  0  0  0  0  0  0  0  0  0  0
   -5.6683    4.4790    1.4629 C   0  0  0  0  0  0  0  0  0  0  0  0
   -5.1495    5.1392    2.4217 O   0  0  0  0  0  0  0  0  0  0  0  0
   -7.0737    4.8455    1.0499 C   0  0  1  0  0  0  0  0  0  0  0  0
   -7.4168    6.2319    1.3127 C   0  0  0  0  0  0  0  0  0  0  0  0
   -7.3346    4.5216   -0.3946 N   0  0  0  0  0  0  0  0  0  0  0  0
   -8.1465    3.4361   -0.7922 C   0  0  0  0  0  0  0  0  0  0  0  0
   -7.9878    3.0190   -2.0347 O   0  0  0  0  0  0  0  0  0  0  0  0
   -9.3427    2.9051    0.0218 C   0  0  1  0  0  0  0  0  0  0  0  0
  -10.5722    3.1691   -0.9047 C   0  0  0  0  0  0  0  0  0  0  0  0
   -9.2656    1.4525    0.3561 N   0  0  0  0  0  0  0  0  0  0  0  0
   -9.1669    0.6549   -0.7527 C   0  0  0  0  0  0  0  0  0  0  0  0
   -7.9264    0.5304   -1.0691 O   0  0  0  0  0  0  0  0  0  0  0  0
  -10.2255   -0.2839   -1.2161 C   0  0  1  0  0  0  0  0  0  0  0  0
   -9.7714   -1.3770   -2.1667 C   0  0  0  0  0  0  0  0  0  0  0  0
  -11.0053   -0.7901   -0.0220 N   0  0  0  0  0  0  0  0  0  0  0  0
  -10.4887   -1.5634    1.0480 C   0  0  0  0  0  0  0  0  0  0  0  0
  -10.7593   -1.1548    2.2590 O   0  0  0  0  0  0  0  0  0  0  0  0
   -4.1902    4.2320   -1.2052 C   0  0  0  0  0  0  0  0  0  0  0  0
   -4.6177    3.9694   -2.3612 O   0  0  0  0  0  0  0  0  0  0  0  0
   -3.8281    5.5752   -0.9446 N   0  0  0  0  0  0  0  0  0  0  0  0
   -2.6019    5.9360   -0.1787 C   0  0  2  0  0  0  0  0  0  0  0  0
   -2.8638    7.2276    0.5494 C   0  0  0  0  0  0  0  0  0  0  0  0
   -1.4688    6.1863   -1.1665 C   0  0  0  0  0  0  0  0  0  0  0  0
   -1.6234    5.7658   -2.3879 O   0  0  0  0  0  0  0  0  0  0  0  0
   -0.3362    6.9583   -0.8898 N   0  0  0  0  0  0  0  0  0  0  0  0
    0.6213    6.6384    0.1935 C   0  0  2  0  0  0  0  0  0  0  0  0
    0.6747    7.8255    1.2436 C   0  0  0  0  0  0  0  0  0  0  0  0
    1.9145    6.1742   -0.3515 C   0  0  0  0  0  0  0  0  0  0  0  0
    1.8771    5.2237   -1.1656 O   0  0  0  0  0  0  0  0  0  0  0  0
    3.2094    6.7567   -0.0762 N   0  0  0  0  0  0  0  0  0  0  0  0
    3.7059    8.1699   -0.2550 C   0  0  2  0  0  0  0  0  0  0  0  0
    2.7919    8.9651   -1.1958 C   0  0  0  0  0  0  0  0  0  0  0  0
    5.0900    8.1425   -0.9399 C   0  0  0  0  0  0  0  0  0  0  0  0
    5.5555    9.0785   -1.6261 O   0  0  0  0  0  0  0  0  0  0  0  0
    5.9863    6.9962   -0.8042 N   0  0  0  0  0  0  0  0  0  0  0  0
    6.5637    6.4048    0.4492 C   0  0  2  0  0  0  0  0  0  0  0  0
    6.3906    7.2825    1.7169 C   0  0  0  0  0  0  0  0  0  0  0  0
    8.0104    6.1527    0.1086 C   0  0  0  0  0  0  0  0  0  0  0  0
    8.7953    7.1543    0.0946 O   0  0  0  0  0  0  0  0  0  0  0  0
    8.4624    5.0004   -0.4972 N   0  0  0  0  0  0  0  0  0  0  0  0
    8.7625    3.7516    0.2086 C   0  0  2  0  0  0  0  0  0  0  0  0
   10.1895    3.8666    0.7412 C   0  0  0  0  0  0  0  0  0  0  0  0
    8.5424    2.6594   -0.7756 C   0  0  0  0  0  0  0  0  0  0  0  0
    7.3751    2.5393   -1.2951 O   0  0  0  0  0  0  0  0  0  0  0  0
    9.5948    1.9543   -1.3755 N   0  0  0  0  0  0  0  0  0  0  0  0
   10.4116    0.8964   -0.7747 C   0  0  2  0  0  0  0  0  0  0  0  0
   11.9110    1.2048   -0.9867 C   0  0  0  0  0  0  0  0  0  0  0  0
    9.9588   -0.3466   -1.4316 C   0  0  0  0  0  0  0  0  0  0  0  0
   10.1348   -0.4720   -2.6966 O   0  0  0  0  0  0  0  0  0  0  0  0
    9.3198   -1.3902   -0.7576 N   0  0  0  0  0  0  0  0  0  0  0  0
    9.9104   -2.2827    0.3147 C   0  0  2  0  0  0  0  0  0  0  0  0
   11.3415   -1.9002    0.6729 C   0  0  0  0  0  0  0  0  0  0  0  0
    9.9985   -3.6542   -0.1909 C   0  0  0  0  0  0  0  0  0  0  0  0
   10.7386   -3.9411   -1.1962 O   0  0  0  0  0  0  0  0  0  0  0  0
    9.3614   -4.7577    0.4237 N   0  0  0  0  0  0  0  0  0  0  0  0
    7.9148   -4.9869    0.5854 C   0  0  2  0  0  0  0  0  0  0  0  0
    7.2367   -3.8950    1.4498 C   0  0  0  0  0  0  0  0  0  0  0  0
    7.6556   -6.2345    1.3777 C   0  0  0  0  0  0  0  0  0  0  0  0
    8.5395   -6.6473    2.2088 O   0  0  0  0  0  0  0  0  0  0  0  0
    6.4094   -6.9312    1.3057 N   0  0  0  0  0  0  0  0  0  0  0  0
    5.6393   -7.4089    0.1072 C   0  0  2  0  0  0  0  0  0  0  0  0
    6.5063   -7.3652   -1.1796 C   0  0  0  0  0  0  0  0  0  0  0  0
    4.4222   -6.5184   -0.0267 C   0  0  0  0  0  0  0  0  0  0  0  0
    4.4912   -5.3644   -0.5438 O   0  0  0  0  0  0  0  0  0  0  0  0
    3.2018   -6.9747    0.4686 N   0  0  0  0  0  0  0  0  0  0  0  0
    2.8535   -8.3920    0.7759 C   0  0  2  0  0  0  0  0  0  0  0  0
    2.8759   -9.2120   -0.5794 C   0  0  0  0  0  0  0  0  0  0  0  0
    1.5817   -8.5258    1.5288 C   0  0  0  0  0  0  0  0  0  0  0  0
    1.3769   -9.4967    2.2985 O   0  0  0  0  0  0  0  0  0  0  0  0
    0.6088   -7.4594    1.4573 N   0  0  0  0  0  0  0  0  0  0  0  0
   -0.0889   -7.1164    0.1897 C   0  0  1  0  0  0  0  0  0  0  0  0
   -1.1097   -8.2035    0.0783 C   0  0  0  0  0  0  0  0  0  0  0  0
   -0.8625   -9.3460   -0.7126 N   0  0  0  0  0  0  0  0  0  0  0  0
   -2.2234   -8.1061    0.6964 O   0  0  0  0  0  0  0  0  0  0  0  0
   -0.7126   -5.6672    0.2719 C   0  0  0  0  0  0  0  0  0  0  0  0
   -2.0608   -5.6496   -1.0186 S   0  0  0  0  0  0  0  0  0  0  0  0
   -2.0544   -3.9507   -1.5750 C   0  0  0  0  0  0  0  0  0  0  0  0
  -10.0391   -5.9133   -0.8026 H   0  0  0  0  0  0  0  0  0  0  0  0
  -11.3601   -4.7431   -1.1044 H   0  0  0  0  0  0  0  0  0  0  0  0
  -11.7539   -6.4248   -0.6143 H   0  0  0  0  0  0  0  0  0  0  0  0
  -11.4738   -3.6036    2.2336 H   0  0  0  0  0  0  0  0  0  0  0  0
   -9.6393   -3.1340   -0.2070 H   0  0  0  0  0  0  0  0  0  0  0  0
   -8.1054   -2.1923    1.9459 H   0  0  0  0  0  0  0  0  0  0  0  0
   -9.0223   -3.5256    2.8087 H   0  0  0  0  0  0  0  0  0  0  0  0
   -5.3085   -4.6434    1.4906 H   0  0  0  0  0  0  0  0  0  0  0  0
   -5.8245   -3.0063    1.9708 H   0  0  0  0  0  0  0  0  0  0  0  0
   -4.4347   -5.0170   -0.5219 H   0  0  0  0  0  0  0  0  0  0  0  0
   -3.2875   -1.5779   -2.7801 H   0  0  0  0  0  0  0  0  0  0  0  0
   -6.3161   -1.8855   -1.2175 H   0  0  0  0  0  0  0  0  0  0  0  0
   -2.7476   -1.6435    0.3749 H   0  0  0  0  0  0  0  0  0  0  0  0
   -4.1325   -0.7515    1.1590 H   0  0  0  0  0  0  0  0  0  0  0  0
   -5.1627    1.3085   -0.4188 H   0  0  0  0  0  0  0  0  0  0  0  0
   -4.0834    1.7324   -1.8499 H   0  0  0  0  0  0  0  0  0  0  0  0
   -2.9956    3.2738    0.2387 H   0  0  0  0  0  0  0  0  0  0  0  0
   -4.7261    2.6635    1.7854 H   0  0  0  0  0  0  0  0  0  0  0  0
   -7.7035    4.1977    1.7231 H   0  0  0  0  0  0  0  0  0  0  0  0
   -7.4287    6.4241    2.3729 H   0  0  0  0  0  0  0  0  0  0  0  0
   -8.3779    6.4884    0.8805 H   0  0  0  0  0  0  0  0  0  0  0  0
   -6.6272    6.9221    0.8528 H   0  0  0  0  0  0  0  0  0  0  0  0
   -6.9590    5.1857   -1.0827 H   0  0  0  0  0  0  0  0  0  0  0  0
   -9.5632    3.4220    0.9187 H   0  0  0  0  0  0  0  0  0  0  0  0
  -10.3957    2.7903   -1.9577 H   0  0  0  0  0  0  0  0  0  0  0  0
  -10.7199    4.2300   -1.0048 H   0  0  0  0  0  0  0  0  0  0  0  0
  -11.5092    2.6683   -0.5278 H   0  0  0  0  0  0  0  0  0  0  0  0
   -8.6639    1.1474    1.1302 H   0  0  0  0  0  0  0  0  0  0  0  0
  -10.9599    0.3823   -1.7814 H   0  0  0  0  0  0  0  0  0  0  0  0
   -9.6120   -0.9541   -3.1511 H   0  0  0  0  0  0  0  0  0  0  0  0
  -10.5194   -2.1991   -2.1902 H   0  0  0  0  0  0  0  0  0  0  0  0
   -8.8110   -1.8448   -1.8365 H   0  0  0  0  0  0  0  0  0  0  0  0
  -11.9326   -0.3060    0.1713 H   0  0  0  0  0  0  0  0  0  0  0  0
   -4.1856    6.3089   -1.5531 H   0  0  0  0  0  0  0  0  0  0  0  0
   -2.2946    5.1761    0.5630 H   0  0  0  0  0  0  0  0  0  0  0  0
   -2.5518    8.1037   -0.0516 H   0  0  0  0  0  0  0  0  0  0  0  0
   -2.3707    7.2382    1.5619 H   0  0  0  0  0  0  0  0  0  0  0  0
   -3.9694    7.3554    0.7432 H   0  0  0  0  0  0  0  0  0  0  0  0
    0.0129    7.5925   -1.6377 H   0  0  0  0  0  0  0  0  0  0  0  0
    0.2629    5.7674    0.7651 H   0  0  0  0  0  0  0  0  0  0  0  0
    1.7143    7.9139    1.6490 H   0  0  0  0  0  0  0  0  0  0  0  0
    0.0341    7.5651    2.0776 H   0  0  0  0  0  0  0  0  0  0  0  0
    0.3300    8.7589    0.7830 H   0  0  0  0  0  0  0  0  0  0  0  0
    3.9096    6.0105   -0.2647 H   0  0  0  0  0  0  0  0  0  0  0  0
    3.7488    8.6691    0.7192 H   0  0  0  0  0  0  0  0  0  0  0  0
    2.3880    8.3512   -2.0232 H   0  0  0  0  0  0  0  0  0  0  0  0
    3.2546    9.8307   -1.6028 H   0  0  0  0  0  0  0  0  0  0  0  0
    1.9866    9.4143   -0.6159 H   0  0  0  0  0  0  0  0  0  0  0  0
    6.4919    6.8025   -1.6893 H   0  0  0  0  0  0  0  0  0  0  0  0
    6.1107    5.3589    0.6065 H   0  0  0  0  0  0  0  0  0  0  0  0
    5.7698    6.7022    2.4135 H   0  0  0  0  0  0  0  0  0  0  0  0
    5.9766    8.2563    1.4601 H   0  0  0  0  0  0  0  0  0  0  0  0
    7.4181    7.4445    2.1923 H   0  0  0  0  0  0  0  0  0  0  0  0
    9.0372    5.1134   -1.3958 H   0  0  0  0  0  0  0  0  0  0  0  0
    8.0566    3.6357    1.1122 H   0  0  0  0  0  0  0  0  0  0  0  0
   10.2520    4.7299    1.3962 H   0  0  0  0  0  0  0  0  0  0  0  0
   10.5002    2.9323    1.3052 H   0  0  0  0  0  0  0  0  0  0  0  0
   10.8664    4.0313   -0.1560 H   0  0  0  0  0  0  0  0  0  0  0  0
    9.6144    1.9737   -2.4274 H   0  0  0  0  0  0  0  0  0  0  0  0
   10.1636    0.8294    0.3396 H   0  0  0  0  0  0  0  0  0  0  0  0
   12.0120    1.9779   -1.7810 H   0  0  0  0  0  0  0  0  0  0  0  0
   12.3478    1.6103   -0.0279 H   0  0  0  0  0  0  0  0  0  0  0  0
   12.4431    0.2890   -1.3225 H   0  0  0  0  0  0  0  0  0  0  0  0
    8.4537   -1.7775   -1.2357 H   0  0  0  0  0  0  0  0  0  0  0  0
    9.2631   -2.2054    1.2263 H   0  0  0  0  0  0  0  0  0  0  0  0
   11.7291   -2.7290    1.2972 H   0  0  0  0  0  0  0  0  0  0  0  0
   11.9664   -1.8165   -0.2610 H   0  0  0  0  0  0  0  0  0  0  0  0
   11.3551   -0.9636    1.2751 H   0  0  0  0  0  0  0  0  0  0  0  0
    9.9621   -5.6221    0.4709 H   0  0  0  0  0  0  0  0  0  0  0  0
    7.3929   -4.9597   -0.3996 H   0  0  0  0  0  0  0  0  0  0  0  0
    7.8251   -3.6868    2.3699 H   0  0  0  0  0  0  0  0  0  0  0  0
    7.1183   -2.9632    0.8466 H   0  0  0  0  0  0  0  0  0  0  0  0
    6.2369   -4.2113    1.7413 H   0  0  0  0  0  0  0  0  0  0  0  0
    6.0768   -7.3152    2.1948 H   0  0  0  0  0  0  0  0  0  0  0  0
    5.4162   -8.4605    0.2822 H   0  0  0  0  0  0  0  0  0  0  0  0
    6.2842   -8.2327   -1.7680 H   0  0  0  0  0  0  0  0  0  0  0  0
    7.5964   -7.4081   -0.9513 H   0  0  0  0  0  0  0  0  0  0  0  0
    6.2936   -6.4742   -1.7912 H   0  0  0  0  0  0  0  0  0  0  0  0
    2.4946   -6.2417    0.7669 H   0  0  0  0  0  0  0  0  0  0  0  0
    3.6258   -8.8353    1.4327 H   0  0  0  0  0  0  0  0  0  0  0  0
    3.2057   -8.5746   -1.4270 H   0  0  0  0  0  0  0  0  0  0  0  0
    1.8992   -9.6433   -0.7715 H   0  0  0  0  0  0  0  0  0  0  0  0
    3.6105  -10.0592   -0.4770 H   0  0  0  0  0  0  0  0  0  0  0  0
    0.0225   -7.3293    2.2891 H   0  0  0  0  0  0  0  0  0  0  0  0
    0.6623   -7.0425   -0.6954 H   0  0  0  0  0  0  0  0  0  0  0  0
   -0.1731   -9.3354   -1.4937 H   0  0  0  0  0  0  0  0  0  0  0  0
   -1.1670  -10.2087   -0.2507 H   0  0  0  0  0  0  0  0  0  0  0  0
   -0.0002   -4.9199    0.1568 H   0  0  0  0  0  0  0  0  0  0  0  0
   -1.1447   -5.5885    1.3575 H   0  0  0  0  0  0  0  0  0  0  0  0
   -1.4423   -3.3439   -0.8885 H   0  0  0  0  0  0  0  0  0  0  0  0
   -1.6958   -4.0340   -2.6397 H   0  0  0  0  0  0  0  0  0  0  0  0
  1  2  1  0
  2  3  2  0
  2  4  1  0
  4  5  1  0
  5  6  1  0
  6  7  1  0
  7  8  1  0
  8  9  1  0
  9 10  1  0
 10 11  2  0
 11 12  1  0
 12 13  2  0
 13 14  1  0
 13 15  1  0
 15 16  1  0
 16 17  1  0
 17 18  1  0
 18 19  1  0
 19 20  1  0
 20 21  2  0
 20 22  1  0
 22 23  1  0
 22 24  1  0
 24 25  1  0
 25 26  2  0
 25 27  1  0
 27 28  1  0
 27 29  1  0
 29 30  1  0
 30 31  2  0
 30 32  1  0
 32 33  1  0
 32 34  1  0
 34 35  1  0
 35 36  2  0
 18 37  1  0
 37 38  2  0
 37 39  1  0
 39 40  1  0
 40 41  1  0
 40 42  1  0
 42 43  2  0
 42 44  1  0
 44 45  1  0
 45 46  1  0
 45 47  1  0
 47 48  2  0
 47 49  1  0
 49 50  1  0
 50 51  1  0
 50 52  1  0
 52 53  2  0
 52 54  1  0
 54 55  1  0
 55 56  1  0
 55 57  1  0
 57 58  2  0
 57 59  1  0
 59 60  1  0
 60 61  1  0
 60 62  1  0
 62 63  2  0
 62 64  1  0
 64 65  1  0
 65 66  1  0
 65 67  1  0
 67 68  2  0
 67 69  1  0
 69 70  1  0
 70 71  1  0
 70 72  1  0
 72 73  2  0
 72 74  1  0
 74 75  1  0
 75 76  1  0
 75 77  1  0
 77 78  2  0
 77 79  1  0
 79 80  1  0
 80 81  1  0
 80 82  1  0
 82 83  2  0
 82 84  1  0
 84 85  1  0
 85 86  1  0
 85 87  1  0
 87 88  2  0
 87 89  1  0
 89 90  1  0
 90 91  1  0
 91 92  1  0
 91 93  2  0
 90 94  1  0
 94 95  1  0
 95 96  1  0
 35  5  1  0
 14  9  2  0
 96 11  1  0
  1 97  1  0
  1 98  1  0
  1 99  1  0
  4100  1  0
  5101  1  6
  6102  1  0
  6103  1  0
  8104  1  0
  8105  1  0
 10106  1  0
 12107  1  0
 14108  1  0
 15109  1  0
 15110  1  0
 17111  1  0
 17112  1  0
 18113  1  1
 19114  1  0
 22115  1  1
 23116  1  0
 23117  1  0
 23118  1  0
 24119  1  0
 27120  1  1
 28121  1  0
 28122  1  0
 28123  1  0
 29124  1  0
 32125  1  6
 33126  1  0
 33127  1  0
 33128  1  0
 34129  1  0
 39130  1  0
 40131  1  1
 41132  1  0
 41133  1  0
 41134  1  0
 44135  1  0
 45136  1  1
 46137  1  0
 46138  1  0
 46139  1  0
 49140  1  0
 50141  1  1
 51142  1  0
 51143  1  0
 51144  1  0
 54145  1  0
 55146  1  1
 56147  1  0
 56148  1  0
 56149  1  0
 59150  1  0
 60151  1  1
 61152  1  0
 61153  1  0
 61154  1  0
 64155  1  0
 65156  1  1
 66157  1  0
 66158  1  0
 66159  1  0
 69160  1  0
 70161  1  1
 71162  1  0
 71163  1  0
 71164  1  0
 74165  1  0
 75166  1  6
 76167  1  0
 76168  1  0
 76169  1  0
 79170  1  0
 80171  1  1
 81172  1  0
 81173  1  0
 81174  1  0
 84175  1  0
 85176  1  1
 86177  1  0
 86178  1  0
 86179  1  0
 89180  1  0
 90181  1  6
 92182  1  0
 92183  1  0
 94184  1  0
 94185  1  0
 96186  1  0
 96187  1  0
M  END
