
     RDKit          3D

177179  0  0  0  0  0  0  0  0999 V2000
  -13.3126    4.7997   -0.6834 C   0  0  0  0  0  0  0  0  0  0  0  0
  -11.8962    4.5619   -0.2618 C   0  0  0  0  0  0  0  0  0  0  0  0
  -11.4121    5.2606    0.6719 O   0  0  0  0  0  0  0  0  0  0  0  0
  -11.1011    3.5535   -0.9083 N   0  0  0  0  0  0  0  0  0  0  0  0
   -9.6807    3.3662   -0.5933 C   0  0  2  0  0  0  0  0  0  0  0  0
   -8.9259    2.7285   -1.7839 C   0  0  0  0  0  0  0  0  0  0  0  0
   -7.2826    3.4867   -2.1022 S   0  0  0  0  0  0  0  0  0  0  0  0
   -6.5511    3.2267   -0.4525 C   0  0  0  0  0  0  0  0  0  0  0  0
   -5.0575    3.0940   -0.5712 C   0  0  0  0  0  0  0  0  0  0  0  0
   -4.1984    4.1336   -0.1752 C   0  0  0  0  0  0  0  0  0  0  0  0
   -2.8042    3.9619   -0.2394 C   0  0  0  0  0  0  0  0  0  0  0  0
   -2.2832    2.7229   -0.6400 C   0  0  0  0  0  0  0  0  0  0  0  0
   -3.1353    1.6778   -1.0262 C   0  0  0  0  0  0  0  0  0  0  0  0
   -4.5153    1.8801   -1.0125 C   0  0  0  0  0  0  0  0  0  0  0  0
   -2.5863    0.3021   -1.2668 C   0  0  0  0  0  0  0  0  0  0  0  0
   -2.5451   -0.5719    0.3344 S   0  0  0  0  0  0  0  0  0  0  0  0
   -1.8592   -2.1404   -0.2986 C   0  0  0  0  0  0  0  0  0  0  0  0
   -2.9604   -3.0968   -0.8011 C   0  0  2  0  0  0  0  0  0  0  0  0
   -3.9759   -3.2971    0.2367 N   0  0  0  0  0  0  0  0  0  0  0  0
   -5.3440   -3.6034   -0.0879 C   0  0  0  0  0  0  0  0  0  0  0  0
   -5.5884   -4.5151   -0.9225 O   0  0  0  0  0  0  0  0  0  0  0  0
   -6.4849   -2.8068    0.4840 C   0  0  1  0  0  0  0  0  0  0  0  0
   -6.3213   -2.5245    1.9815 C   0  0  0  0  0  0  0  0  0  0  0  0
   -6.5980   -1.5461   -0.2573 N   0  0  0  0  0  0  0  0  0  0  0  0
   -7.5840   -1.2264   -1.2617 C   0  0  0  0  0  0  0  0  0  0  0  0
   -7.3581   -0.2550   -2.0281 O   0  0  0  0  0  0  0  0  0  0  0  0
   -8.8884   -1.9715   -1.4522 C   0  0  1  0  0  0  0  0  0  0  0  0
   -8.6622   -3.2748   -2.2314 C   0  0  0  0  0  0  0  0  0  0  0  0
   -9.5678   -2.2197   -0.1742 N   0  0  0  0  0  0  0  0  0  0  0  0
  -10.0019   -1.1890    0.7285 C   0  0  0  0  0  0  0  0  0  0  0  0
  -10.0953   -1.4750    1.9561 O   0  0  0  0  0  0  0  0  0  0  0  0
  -10.3792    0.2174    0.2868 C   0  0  1  0  0  0  0  0  0  0  0  0
  -11.7737    0.5528    0.8265 C   0  0  0  0  0  0  0  0  0  0  0  0
   -9.3854    1.1748    0.7810 N   0  0  0  0  0  0  0  0  0  0  0  0
   -9.5342    2.6040    0.7120 C   0  0  0  0  0  0  0  0  0  0  0  0
   -9.5189    3.2612    1.7957 O   0  0  0  0  0  0  0  0  0  0  0  0
   -2.3842   -4.4341   -1.2231 C   0  0  0  0  0  0  0  0  0  0  0  0
   -3.1277   -5.2978   -1.7611 O   0  0  0  0  0  0  0  0  0  0  0  0
   -0.9997   -4.7421   -0.9921 N   0  0  0  0  0  0  0  0  0  0  0  0
   -0.5471   -5.9272   -0.2508 C   0  0  2  0  0  0  0  0  0  0  0  0
   -1.5797   -6.3655    0.8021 C   0  0  0  0  0  0  0  0  0  0  0  0
    0.7697   -5.6342    0.4406 C   0  0  0  0  0  0  0  0  0  0  0  0
    1.1602   -4.4402    0.5575 O   0  0  0  0  0  0  0  0  0  0  0  0
    1.5456   -6.6739    1.0597 N   0  0  0  0  0  0  0  0  0  0  0  0
    1.5968   -8.0506    0.5591 C   0  0  2  0  0  0  0  0  0  0  0  0
    1.8741   -9.0136    1.7191 C   0  0  0  0  0  0  0  0  0  0  0  0
    2.6423   -8.1548   -0.5133 C   0  0  0  0  0  0  0  0  0  0  0  0
    2.3084   -8.5379   -1.6679 O   0  0  0  0  0  0  0  0  0  0  0  0
    4.0084   -7.8179   -0.2379 N   0  0  0  0  0  0  0  0  0  0  0  0
    4.6580   -6.6149   -0.7765 C   0  0  2  0  0  0  0  0  0  0  0  0
    4.2774   -6.3533   -2.2431 C   0  0  0  0  0  0  0  0  0  0  0  0
    6.1552   -6.7630   -0.6473 C   0  0  0  0  0  0  0  0  0  0  0  0
    6.7416   -7.5841   -1.4035 O   0  0  0  0  0  0  0  0  0  0  0  0
    6.9477   -6.0725    0.3419 N   0  0  0  0  0  0  0  0  0  0  0  0
    6.5070   -5.0753    1.3245 C   0  0  2  0  0  0  0  0  0  0  0  0
    5.6440   -5.7344    2.4074 C   0  0  0  0  0  0  0  0  0  0  0  0
    5.8519   -3.8819    0.6645 C   0  0  0  0  0  0  0  0  0  0  0  0
    4.7391   -3.4670    1.0992 O   0  0  0  0  0  0  0  0  0  0  0  0
    6.4189   -3.2247   -0.4808 N   0  0  0  0  0  0  0  0  0  0  0  0
    7.7850   -2.6844   -0.5817 C   0  0  2  0  0  0  0  0  0  0  0  0
    8.8361   -3.7902   -0.7243 C   0  0  0  0  0  0  0  0  0  0  0  0
    8.1058   -1.7498    0.5677 C   0  0  0  0  0  0  0  0  0  0  0  0
    8.2028   -2.2346    1.7305 O   0  0  0  0  0  0  0  0  0  0  0  0
    8.3023   -0.3279    0.4090 N   0  0  0  0  0  0  0  0  0  0  0  0
    8.4169    0.3843   -0.8698 C   0  0  2  0  0  0  0  0  0  0  0  0
    9.7994    0.1255   -1.4760 C   0  0  0  0  0  0  0  0  0  0  0  0
    8.1032    1.8551   -0.6689 C   0  0  0  0  0  0  0  0  0  0  0  0
    7.0153    2.1621   -0.1056 O   0  0  0  0  0  0  0  0  0  0  0  0
    8.9803    2.9091   -1.1163 N   0  0  0  0  0  0  0  0  0  0  0  0
    8.7677    4.3106   -0.7289 C   0  0  2  0  0  0  0  0  0  0  0  0
    9.6382    5.2380   -1.5818 C   0  0  0  0  0  0  0  0  0  0  0  0
    9.1029    4.4817    0.7306 C   0  0  0  0  0  0  0  0  0  0  0  0
   10.2040    4.0443    1.1616 O   0  0  0  0  0  0  0  0  0  0  0  0
    8.1945    5.1237    1.6426 N   0  0  0  0  0  0  0  0  0  0  0  0
    7.5623    6.4163    1.3535 C   0  0  2  0  0  0  0  0  0  0  0  0
    8.5815    7.5374    1.5760 C   0  0  0  0  0  0  0  0  0  0  0  0
    6.3682    6.6369    2.2556 C   0  0  0  0  0  0  0  0  0  0  0  0
    6.4522    6.3125    3.4723 O   0  0  0  0  0  0  0  0  0  0  0  0
    5.1795    7.3248    1.8137 N   0  0  0  0  0  0  0  0  0  0  0  0
    4.6613    7.2845    0.4447 C   0  0  2  0  0  0  0  0  0  0  0  0
    5.0928    8.5491   -0.2989 C   0  0  0  0  0  0  0  0  0  0  0  0
    3.1534    7.1113    0.4580 C   0  0  0  0  0  0  0  0  0  0  0  0
    2.4234    7.8044   -0.3009 O   0  0  0  0  0  0  0  0  0  0  0  0
    2.5570    6.0964    1.2827 N   0  0  0  0  0  0  0  0  0  0  0  0
    1.3107    5.4226    0.9418 C   0  0  1  0  0  0  0  0  0  0  0  0
    1.5379    3.9338    0.9793 C   0  0  0  0  0  0  0  0  0  0  0  0
    1.4793    3.1582   -0.2176 N   0  0  0  0  0  0  0  0  0  0  0  0
    1.7922    3.3657    2.0785 O   0  0  0  0  0  0  0  0  0  0  0  0
    0.1746    5.8665    1.8962 C   0  0  0  0  0  0  0  0  0  0  0  0
   -1.2959    4.7553    1.8913 S   0  0  0  0  0  0  0  0  0  0  0  0
   -1.8582    5.0581    0.1762 C   0  0  0  0  0  0  0  0  0  0  0  0
  -13.4571    5.8745   -0.9214 H   0  0  0  0  0  0  0  0  0  0  0  0
  -13.5614    4.2055   -1.5859 H   0  0  0  0  0  0  0  0  0  0  0  0
  -13.9992    4.5200    0.1407 H   0  0  0  0  0  0  0  0  0  0  0  0
  -11.5701    2.9084   -1.5822 H   0  0  0  0  0  0  0  0  0  0  0  0
   -9.2359    4.3819   -0.4446 H   0  0  0  0  0  0  0  0  0  0  0  0
   -8.8288    1.6393   -1.6768 H   0  0  0  0  0  0  0  0  0  0  0  0
   -9.5087    2.8916   -2.7176 H   0  0  0  0  0  0  0  0  0  0  0  0
   -6.9458    2.2976    0.0020 H   0  0  0  0  0  0  0  0  0  0  0  0
   -6.8348    4.0881    0.1960 H   0  0  0  0  0  0  0  0  0  0  0  0
   -4.6050    5.0811    0.1564 H   0  0  0  0  0  0  0  0  0  0  0  0
   -1.2123    2.5554   -0.6198 H   0  0  0  0  0  0  0  0  0  0  0  0
   -5.1810    1.0787   -1.3119 H   0  0  0  0  0  0  0  0  0  0  0  0
   -3.2304   -0.2519   -1.9801 H   0  0  0  0  0  0  0  0  0  0  0  0
   -1.5643    0.3623   -1.6932 H   0  0  0  0  0  0  0  0  0  0  0  0
   -1.3086   -2.6074    0.5419 H   0  0  0  0  0  0  0  0  0  0  0  0
   -1.1232   -1.9309   -1.1018 H   0  0  0  0  0  0  0  0  0  0  0  0
   -3.4314   -2.6281   -1.6949 H   0  0  0  0  0  0  0  0  0  0  0  0
   -3.7298   -3.0879    1.2323 H   0  0  0  0  0  0  0  0  0  0  0  0
   -7.4070   -3.4111    0.3795 H   0  0  0  0  0  0  0  0  0  0  0  0
   -5.4726   -1.8327    2.1786 H   0  0  0  0  0  0  0  0  0  0  0  0
   -6.1519   -3.4740    2.5414 H   0  0  0  0  0  0  0  0  0  0  0  0
   -7.2519   -2.0586    2.3781 H   0  0  0  0  0  0  0  0  0  0  0  0
   -5.7946   -0.8871   -0.1675 H   0  0  0  0  0  0  0  0  0  0  0  0
   -9.5584   -1.3505   -2.0852 H   0  0  0  0  0  0  0  0  0  0  0  0
   -8.1524   -3.0607   -3.1973 H   0  0  0  0  0  0  0  0  0  0  0  0
   -9.6383   -3.7499   -2.4505 H   0  0  0  0  0  0  0  0  0  0  0  0
   -8.0498   -4.0059   -1.6651 H   0  0  0  0  0  0  0  0  0  0  0  0
   -9.6953   -3.2068    0.1442 H   0  0  0  0  0  0  0  0  0  0  0  0
  -10.4212    0.2650   -0.8149 H   0  0  0  0  0  0  0  0  0  0  0  0
  -12.5050   -0.2486    0.5610 H   0  0  0  0  0  0  0  0  0  0  0  0
  -12.1476    1.4969    0.3868 H   0  0  0  0  0  0  0  0  0  0  0  0
  -11.7509    0.6549    1.9288 H   0  0  0  0  0  0  0  0  0  0  0  0
   -8.6496    0.8255    1.4442 H   0  0  0  0  0  0  0  0  0  0  0  0
   -0.2976   -4.2092   -1.5557 H   0  0  0  0  0  0  0  0  0  0  0  0
   -0.4048   -6.7470   -0.9830 H   0  0  0  0  0  0  0  0  0  0  0  0
   -2.4872   -6.7719    0.3076 H   0  0  0  0  0  0  0  0  0  0  0  0
   -1.8674   -5.4996    1.4411 H   0  0  0  0  0  0  0  0  0  0  0  0
   -1.1725   -7.1560    1.4631 H   0  0  0  0  0  0  0  0  0  0  0  0
    2.2994   -6.3697    1.7168 H   0  0  0  0  0  0  0  0  0  0  0  0
    0.6163   -8.3535    0.1490 H   0  0  0  0  0  0  0  0  0  0  0  0
    1.0415   -8.9585    2.4517 H   0  0  0  0  0  0  0  0  0  0  0  0
    2.8166   -8.7587    2.2498 H   0  0  0  0  0  0  0  0  0  0  0  0
    1.9367  -10.0579    1.3438 H   0  0  0  0  0  0  0  0  0  0  0  0
    4.4053   -8.1791    0.6628 H   0  0  0  0  0  0  0  0  0  0  0  0
    4.2932   -5.7484   -0.2009 H   0  0  0  0  0  0  0  0  0  0  0  0
    4.8423   -5.4722   -2.6305 H   0  0  0  0  0  0  0  0  0  0  0  0
    3.1961   -6.1203   -2.3272 H   0  0  0  0  0  0  0  0  0  0  0  0
    4.5177   -7.2367   -2.8763 H   0  0  0  0  0  0  0  0  0  0  0  0
    7.9559   -6.3572    0.3927 H   0  0  0  0  0  0  0  0  0  0  0  0
    7.4038   -4.6937    1.8534 H   0  0  0  0  0  0  0  0  0  0  0  0
    4.6393   -6.0109    2.0255 H   0  0  0  0  0  0  0  0  0  0  0  0
    5.5040   -5.0402    3.2664 H   0  0  0  0  0  0  0  0  0  0  0  0
    6.1393   -6.6573    2.7866 H   0  0  0  0  0  0  0  0  0  0  0  0
    5.7367   -2.8897   -1.1946 H   0  0  0  0  0  0  0  0  0  0  0  0
    7.8339   -2.1298   -1.5370 H   0  0  0  0  0  0  0  0  0  0  0  0
    9.8008   -3.3560   -1.0638 H   0  0  0  0  0  0  0  0  0  0  0  0
    9.0275   -4.2982    0.2430 H   0  0  0  0  0  0  0  0  0  0  0  0
    8.5085   -4.5325   -1.4825 H   0  0  0  0  0  0  0  0  0  0  0  0
    8.4166    0.2285    1.2895 H   0  0  0  0  0  0  0  0  0  0  0  0
    7.6385    0.0096   -1.5763 H   0  0  0  0  0  0  0  0  0  0  0  0
   10.0043   -0.9610   -1.5391 H   0  0  0  0  0  0  0  0  0  0  0  0
    9.8642    0.5332   -2.5038 H   0  0  0  0  0  0  0  0  0  0  0  0
   10.5952    0.5868   -0.8441 H   0  0  0  0  0  0  0  0  0  0  0  0
    9.7735    2.6900   -1.7546 H   0  0  0  0  0  0  0  0  0  0  0  0
    7.7074    4.5700   -0.9158 H   0  0  0  0  0  0  0  0  0  0  0  0
   10.7212    5.0338   -1.4143 H   0  0  0  0  0  0  0  0  0  0  0  0
    9.4106    5.0831   -2.6602 H   0  0  0  0  0  0  0  0  0  0  0  0
    9.4302    6.3008   -1.3350 H   0  0  0  0  0  0  0  0  0  0  0  0
    8.3033    4.8475    2.6468 H   0  0  0  0  0  0  0  0  0  0  0  0
    7.2569    6.4502    0.2889 H   0  0  0  0  0  0  0  0  0  0  0  0
    8.8442    7.6141    2.6492 H   0  0  0  0  0  0  0  0  0  0  0  0
    9.5081    7.3450    0.9977 H   0  0  0  0  0  0  0  0  0  0  0  0
    8.1600    8.5093    1.2380 H   0  0  0  0  0  0  0  0  0  0  0  0
    4.6230    7.8332    2.5381 H   0  0  0  0  0  0  0  0  0  0  0  0
    5.0648    6.3936   -0.0785 H   0  0  0  0  0  0  0  0  0  0  0  0
    4.7108    8.5288   -1.3453 H   0  0  0  0  0  0  0  0  0  0  0  0
    4.6963    9.4548    0.2153 H   0  0  0  0  0  0  0  0  0  0  0  0
    6.2014    8.6070   -0.3369 H   0  0  0  0  0  0  0  0  0  0  0  0
    3.0505    5.8111    2.1578 H   0  0  0  0  0  0  0  0  0  0  0  0
    1.0214    5.7149   -0.0901 H   0  0  0  0  0  0  0  0  0  0  0  0
    1.6430    2.1304   -0.1783 H   0  0  0  0  0  0  0  0  0  0  0  0
    1.3030    3.6000   -1.1435 H   0  0  0  0  0  0  0  0  0  0  0  0
   -0.1513    6.9063    1.6516 H   0  0  0  0  0  0  0  0  0  0  0  0
    0.5728    5.8720    2.9388 H   0  0  0  0  0  0  0  0  0  0  0  0
   -2.3382    6.0598    0.0993 H   0  0  0  0  0  0  0  0  0  0  0  0
   -1.0085    5.0437   -0.5308 H   0  0  0  0  0  0  0  0  0  0  0  0
  1  2  1  0
  2  3  2  0
  2  4  1  0
  4  5  1  0
  5  6  1  0
  6  7  1  0
  7  8  1  0
  8  9  1  0
  9 10  1  0
 10 11  2  0
 11 12  1  0
 12 13  2  0
 13 14  1  0
 13 15  1  0
 15 16  1  0
 16 17  1  0
 17 18  1  0
 18 19  1  0
 19 20  1  0
 20 21  2  0
 20 22  1  0
 22 23  1  0
 22 24  1  0
 24 25  1  0
 25 26  2  0
 25 27  1  0
 27 28  1  0
 27 29  1  0
 29 30  1  0
 30 31  2  0
 30 32  1  0
 32 33  1  0
 32 34  1  0
 34 35  1  0
 35 36  2  0
 18 37  1  0
 37 38  2  0
 37 39  1  0
 39 40  1  0
 40 41  1  0
 40 42  1  0
 42 43  2  0
 42 44  1  0
 44 45  1  0
 45 46  1  0
 45 47  1  0
 47 48  2  0
 47 49  1  0
 49 50  1  0
 50 51  1  0
 50 52  1  0
 52 53  2  0
 52 54  1  0
 54 55  1  0
 55 56  1  0
 55 57  1  0
 57 58  2  0
 57 59  1  0
 59 60  1  0
 60 61  1  0
 60 62  1  0
 62 63  2  0
 62 64  1  0
 64 65  1  0
 65 66  1  0
 65 67  1  0
 67 68  2  0
 67 69  1  0
 69 70  1  0
 70 71  1  0
 70 72  1  0
 72 73  2  0
 72 74  1  0
 74 75  1  0
 75 76  1  0
 75 77  1  0
 77 78  2  0
 77 79  1  0
 79 80  1  0
 80 81  1  0
 80 82  1  0
 82 83  2  0
 82 84  1  0
 84 85  1  0
 85 86  1  0
 86 87  1  0
 86 88  2  0
 85 89  1  0
 89 90  1  0
 90 91  1  0
 35  5  1  0
 14  9  2  0
 91 11  1  0
  1 92  1  0
  1 93  1  0
  1 94  1  0
  4 95  1  0
  5 96  1  1
  6 97  1  0
  6 98  1  0
  8 99  1  0
  8100  1  0
 10101  1  0
 12102  1  0
 14103  1  0
 15104  1  0
 15105  1  0
 17106  1  0
 17107  1  0
 18108  1  6
 19109  1  0
 22110  1  1
 23111  1  0
 23112  1  0
 23113  1  0
 24114  1  0
 27115  1  6
 28116  1  0
 28117  1  0
 28118  1  0
 29119  1  0
 32120  1  6
 33121  1  0
 33122  1  0
 33123  1  0
 34124  1  0
 39125  1  0
 40126  1  6
 41127  1  0
 41128  1  0
 41129  1  0
 44130  1  0
 45131  1  6
 46132  1  0
 46133  1  0
 46134  1  0
 49135  1  0
 50136  1  1
 51137  1  0
 51138  1  0
 51139  1  0
 54140  1  0
 55141  1  1
 56142  1  0
 56143  1  0
 56144  1  0
 59145  1  0
 60146  1  6
 61147  1  0
 61148  1  0
 61149  1  0
 64150  1  0
 65151  1  6
 66152  1  0
 66153  1  0
 66154  1  0
 69155  1  0
 70156  1  1
 71157  1  0
 71158  1  0
 71159  1  0
 74160  1  0
 75161  1  6
 76162  1  0
 76163  1  0
 76164  1  0
 79165  1  0
 80166  1  6
 81167  1  0
 81168  1  0
 81169  1  0
 84170  1  0
 85171  1  6
 87172  1  0
 87173  1  0
 89174  1  0
 89175  1  0
 91176  1  0
 91177  1  0
M  END
