
     RDKit          3D

177179  0  0  0  0  0  0  0  0999 V2000
  -11.8153    4.9447   -0.4527 C   0  0  0  0  0  0  0  0  0  0  0  0
  -11.3374    4.9114    0.9677 C   0  0  0  0  0  0  0  0  0  0  0  0
  -11.8396    5.7142    1.7968 O   0  0  0  0  0  0  0  0  0  0  0  0
  -10.2976    4.0162    1.3999 N   0  0  0  0  0  0  0  0  0  0  0  0
   -9.6634    3.0101    0.5420 C   0  0  1  0  0  0  0  0  0  0  0  0
   -8.1433    3.2219    0.5165 C   0  0  0  0  0  0  0  0  0  0  0  0
   -7.7469    4.7642   -0.3977 S   0  0  0  0  0  0  0  0  0  0  0  0
   -6.4985    4.0335   -1.5203 C   0  0  0  0  0  0  0  0  0  0  0  0
   -5.2040    3.8012   -0.7912 C   0  0  0  0  0  0  0  0  0  0  0  0
   -4.4275    4.8992   -0.3961 C   0  0  0  0  0  0  0  0  0  0  0  0
   -3.2074    4.7115    0.2617 C   0  0  0  0  0  0  0  0  0  0  0  0
   -2.7759    3.4078    0.5527 C   0  0  0  0  0  0  0  0  0  0  0  0
   -3.5637    2.2979    0.2047 C   0  0  0  0  0  0  0  0  0  0  0  0
   -4.7744    2.5012   -0.4794 C   0  0  0  0  0  0  0  0  0  0  0  0
   -3.1361    0.9063    0.5924 C   0  0  0  0  0  0  0  0  0  0  0  0
   -2.5761   -0.0169   -0.8847 S   0  0  0  0  0  0  0  0  0  0  0  0
   -1.6698   -1.3418    0.0043 C   0  0  0  0  0  0  0  0  0  0  0  0
   -2.4612   -2.6577    0.0332 C   0  0  2  0  0  0  0  0  0  0  0  0
   -3.6821   -2.5255    0.8364 N   0  0  0  0  0  0  0  0  0  0  0  0
   -4.6664   -3.5638    0.8222 C   0  0  0  0  0  0  0  0  0  0  0  0
   -4.5599   -4.5148    1.6440 O   0  0  0  0  0  0  0  0  0  0  0  0
   -5.8904   -3.4509   -0.0511 C   0  0  1  0  0  0  0  0  0  0  0  0
   -5.5247   -3.0981   -1.4980 C   0  0  0  0  0  0  0  0  0  0  0  0
   -6.6520   -4.7046   -0.0335 N   0  0  0  0  0  0  0  0  0  0  0  0
   -8.0272   -4.7767    0.3670 C   0  0  0  0  0  0  0  0  0  0  0  0
   -8.4058   -5.7378    1.0861 O   0  0  0  0  0  0  0  0  0  0  0  0
   -9.0368   -3.7735   -0.1244 C   0  0  1  0  0  0  0  0  0  0  0  0
  -10.0686   -4.4600   -1.0221 C   0  0  0  0  0  0  0  0  0  0  0  0
   -9.7243   -3.1422    1.0102 N   0  0  0  0  0  0  0  0  0  0  0  0
   -9.9440   -1.7316    1.1758 C   0  0  0  0  0  0  0  0  0  0  0  0
  -10.8141   -1.3554    2.0059 O   0  0  0  0  0  0  0  0  0  0  0  0
   -9.1722   -0.6860    0.3961 C   0  0  1  0  0  0  0  0  0  0  0  0
   -9.7695   -0.4620   -1.0054 C   0  0  0  0  0  0  0  0  0  0  0  0
   -9.1027    0.5737    1.1485 N   0  0  0  0  0  0  0  0  0  0  0  0
  -10.0692    1.6289    0.9999 C   0  0  0  0  0  0  0  0  0  0  0  0
  -11.2936    1.3696    1.1483 O   0  0  0  0  0  0  0  0  0  0  0  0
   -1.5915   -3.7562    0.5824 C   0  0  0  0  0  0  0  0  0  0  0  0
   -1.4910   -3.9190    1.8274 O   0  0  0  0  0  0  0  0  0  0  0  0
   -0.8202   -4.5679   -0.3091 N   0  0  0  0  0  0  0  0  0  0  0  0
   -1.0159   -6.0149   -0.4652 C   0  0  2  0  0  0  0  0  0  0  0  0
   -2.3041   -6.2857   -1.2538 C   0  0  0  0  0  0  0  0  0  0  0  0
   -1.0371   -6.7412    0.8646 C   0  0  0  0  0  0  0  0  0  0  0  0
   -2.0505   -6.6206    1.6081 O   0  0  0  0  0  0  0  0  0  0  0  0
    0.0460   -7.5681    1.3337 N   0  0  0  0  0  0  0  0  0  0  0  0
    1.2585   -7.9028    0.5764 C   0  0  2  0  0  0  0  0  0  0  0  0
    0.9437   -8.9523   -0.4982 C   0  0  0  0  0  0  0  0  0  0  0  0
    2.3160   -8.4469    1.5108 C   0  0  0  0  0  0  0  0  0  0  0  0
    2.0495   -9.4642    2.2124 O   0  0  0  0  0  0  0  0  0  0  0  0
    3.6038   -7.8270    1.6616 N   0  0  0  0  0  0  0  0  0  0  0  0
    4.4127   -7.3716    0.5275 C   0  0  2  0  0  0  0  0  0  0  0  0
    5.0723   -8.5686   -0.1614 C   0  0  0  0  0  0  0  0  0  0  0  0
    5.4665   -6.4038    1.0013 C   0  0  0  0  0  0  0  0  0  0  0  0
    6.3189   -6.7802    1.8486 O   0  0  0  0  0  0  0  0  0  0  0  0
    5.4837   -5.0527    0.5115 N   0  0  0  0  0  0  0  0  0  0  0  0
    6.6344   -4.4178   -0.1606 C   0  0  2  0  0  0  0  0  0  0  0  0
    6.5894   -4.7210   -1.6593 C   0  0  0  0  0  0  0  0  0  0  0  0
    7.9763   -4.8226    0.4140 C   0  0  0  0  0  0  0  0  0  0  0  0
    8.3675   -6.0163    0.3273 O   0  0  0  0  0  0  0  0  0  0  0  0
    8.8441   -3.8513    1.0107 N   0  0  0  0  0  0  0  0  0  0  0  0
    9.2979   -2.6683    0.2669 C   0  0  2  0  0  0  0  0  0  0  0  0
   10.5450   -3.0309   -0.5441 C   0  0  0  0  0  0  0  0  0  0  0  0
    9.5981   -1.5328    1.2172 C   0  0  0  0  0  0  0  0  0  0  0  0
   10.1584   -1.7808    2.3202 O   0  0  0  0  0  0  0  0  0  0  0  0
    9.2515   -0.1734    0.9106 N   0  0  0  0  0  0  0  0  0  0  0  0
    9.3681    0.4075   -0.4320 C   0  0  2  0  0  0  0  0  0  0  0  0
   10.7804    0.9739   -0.6282 C   0  0  0  0  0  0  0  0  0  0  0  0
    8.3085    1.4597   -0.6298 C   0  0  0  0  0  0  0  0  0  0  0  0
    7.1645    1.1111   -1.0253 O   0  0  0  0  0  0  0  0  0  0  0  0
    8.5752    2.8455   -0.3931 N   0  0  0  0  0  0  0  0  0  0  0  0
    8.5367    3.4178    0.9553 C   0  0  2  0  0  0  0  0  0  0  0  0
    7.1924    3.1492    1.6416 C   0  0  0  0  0  0  0  0  0  0  0  0
    8.8617    4.8980    0.9382 C   0  0  0  0  0  0  0  0  0  0  0  0
    9.9425    5.2768    1.4649 O   0  0  0  0  0  0  0  0  0  0  0  0
    7.9570    5.9007    0.4370 N   0  0  0  0  0  0  0  0  0  0  0  0
    7.0439    5.7202   -0.6932 C   0  0  2  0  0  0  0  0  0  0  0  0
    7.6722    6.3261   -1.9535 C   0  0  0  0  0  0  0  0  0  0  0  0
    5.6914    6.3045   -0.3495 C   0  0  0  0  0  0  0  0  0  0  0  0
    5.0025    5.7429    0.5428 O   0  0  0  0  0  0  0  0  0  0  0  0
    5.1525    7.4450   -1.0421 N   0  0  0  0  0  0  0  0  0  0  0  0
    3.7083    7.6239   -1.2096 C   0  0  2  0  0  0  0  0  0  0  0  0
    3.4094    8.1811   -2.6038 C   0  0  0  0  0  0  0  0  0  0  0  0
    3.1538    8.5455   -0.1467 C   0  0  0  0  0  0  0  0  0  0  0  0
    3.9189    9.3707    0.4185 O   0  0  0  0  0  0  0  0  0  0  0  0
    1.7552    8.5441    0.2064 N   0  0  0  0  0  0  0  0  0  0  0  0
    0.8533    7.4181   -0.0746 C   0  0  1  0  0  0  0  0  0  0  0  0
    1.0830    6.3250    0.9335 C   0  0  0  0  0  0  0  0  0  0  0  0
    0.9268    6.5757    2.3329 N   0  0  0  0  0  0  0  0  0  0  0  0
    1.4169    5.1740    0.5428 O   0  0  0  0  0  0  0  0  0  0  0  0
   -0.6131    7.8888   -0.0757 C   0  0  0  0  0  0  0  0  0  0  0  0
   -1.6826    6.6428   -0.8945 S   0  0  0  0  0  0  0  0  0  0  0  0
   -2.3607    5.8979    0.6275 C   0  0  0  0  0  0  0  0  0  0  0  0
  -10.9709    5.2209   -1.1199 H   0  0  0  0  0  0  0  0  0  0  0  0
  -12.2165    3.9514   -0.7447 H   0  0  0  0  0  0  0  0  0  0  0  0
  -12.6208    5.6985   -0.5767 H   0  0  0  0  0  0  0  0  0  0  0  0
  -10.0098    4.0568    2.4029 H   0  0  0  0  0  0  0  0  0  0  0  0
  -10.0169    3.0956   -0.5034 H   0  0  0  0  0  0  0  0  0  0  0  0
   -7.6588    2.3508    0.0328 H   0  0  0  0  0  0  0  0  0  0  0  0
   -7.7474    3.3059    1.5530 H   0  0  0  0  0  0  0  0  0  0  0  0
   -6.3154    4.7372   -2.3594 H   0  0  0  0  0  0  0  0  0  0  0  0
   -6.8933    3.0951   -1.9744 H   0  0  0  0  0  0  0  0  0  0  0  0
   -4.7647    5.9056   -0.6218 H   0  0  0  0  0  0  0  0  0  0  0  0
   -1.8310    3.2580    1.0665 H   0  0  0  0  0  0  0  0  0  0  0  0
   -5.3820    1.6489   -0.7626 H   0  0  0  0  0  0  0  0  0  0  0  0
   -2.3229    0.9667    1.3470 H   0  0  0  0  0  0  0  0  0  0  0  0
   -4.0003    0.3734    1.0503 H   0  0  0  0  0  0  0  0  0  0  0  0
   -1.3807   -1.0383    1.0350 H   0  0  0  0  0  0  0  0  0  0  0  0
   -0.7270   -1.5058   -0.5587 H   0  0  0  0  0  0  0  0  0  0  0  0
   -2.7332   -2.9244   -1.0130 H   0  0  0  0  0  0  0  0  0  0  0  0
   -3.6171   -1.9658    1.7167 H   0  0  0  0  0  0  0  0  0  0  0  0
   -6.5032   -2.6297    0.3663 H   0  0  0  0  0  0  0  0  0  0  0  0
   -5.0235   -2.1056   -1.5374 H   0  0  0  0  0  0  0  0  0  0  0  0
   -4.8572   -3.8713   -1.9292 H   0  0  0  0  0  0  0  0  0  0  0  0
   -6.4466   -3.0351   -2.1125 H   0  0  0  0  0  0  0  0  0  0  0  0
   -6.1425   -5.5989   -0.2041 H   0  0  0  0  0  0  0  0  0  0  0  0
   -8.5171   -3.0249   -0.7491 H   0  0  0  0  0  0  0  0  0  0  0  0
   -9.5655   -4.9338   -1.8925 H   0  0  0  0  0  0  0  0  0  0  0  0
  -10.6248   -5.2386   -0.4570 H   0  0  0  0  0  0  0  0  0  0  0  0
  -10.7967   -3.7108   -1.4006 H   0  0  0  0  0  0  0  0  0  0  0  0
  -10.2143   -3.7768    1.6820 H   0  0  0  0  0  0  0  0  0  0  0  0
   -8.1321   -1.0391    0.2664 H   0  0  0  0  0  0  0  0  0  0  0  0
   -9.6502   -1.3587   -1.6467 H   0  0  0  0  0  0  0  0  0  0  0  0
   -9.2417    0.3779   -1.5047 H   0  0  0  0  0  0  0  0  0  0  0  0
  -10.8545   -0.2301   -0.9451 H   0  0  0  0  0  0  0  0  0  0  0  0
   -8.2587    0.7507    1.7430 H   0  0  0  0  0  0  0  0  0  0  0  0
   -0.3593   -4.0783   -1.1111 H   0  0  0  0  0  0  0  0  0  0  0  0
   -0.1864   -6.3894   -1.0929 H   0  0  0  0  0  0  0  0  0  0  0  0
   -2.2624   -5.7652   -2.2342 H   0  0  0  0  0  0  0  0  0  0  0  0
   -3.1930   -5.9151   -0.7015 H   0  0  0  0  0  0  0  0  0  0  0  0
   -2.4166   -7.3749   -1.4374 H   0  0  0  0  0  0  0  0  0  0  0  0
   -0.0454   -7.9352    2.3071 H   0  0  0  0  0  0  0  0  0  0  0  0
    1.6333   -6.9831    0.0923 H   0  0  0  0  0  0  0  0  0  0  0  0
    0.5823   -9.8939   -0.0274 H   0  0  0  0  0  0  0  0  0  0  0  0
    1.8541   -9.1820   -1.0944 H   0  0  0  0  0  0  0  0  0  0  0  0
    0.1583   -8.5982   -1.1939 H   0  0  0  0  0  0  0  0  0  0  0  0
    4.1116   -8.0496    2.5508 H   0  0  0  0  0  0  0  0  0  0  0  0
    3.7785   -6.8602   -0.2246 H   0  0  0  0  0  0  0  0  0  0  0  0
    5.7501   -8.2247   -0.9738 H   0  0  0  0  0  0  0  0  0  0  0  0
    4.2933   -9.2210   -0.6131 H   0  0  0  0  0  0  0  0  0  0  0  0
    5.6525   -9.1677    0.5731 H   0  0  0  0  0  0  0  0  0  0  0  0
    4.5540   -4.6628    0.2437 H   0  0  0  0  0  0  0  0  0  0  0  0
    6.5124   -3.3228   -0.0389 H   0  0  0  0  0  0  0  0  0  0  0  0
    7.4404   -4.2248   -2.1777 H   0  0  0  0  0  0  0  0  0  0  0  0
    5.6456   -4.3324   -2.0927 H   0  0  0  0  0  0  0  0  0  0  0  0
    6.6442   -5.8173   -1.8345 H   0  0  0  0  0  0  0  0  0  0  0  0
    9.4646   -4.2009    1.7788 H   0  0  0  0  0  0  0  0  0  0  0  0
    8.5073   -2.3520   -0.4424 H   0  0  0  0  0  0  0  0  0  0  0  0
   10.3239   -3.8892   -1.2132 H   0  0  0  0  0  0  0  0  0  0  0  0
   11.3830   -3.3105    0.1315 H   0  0  0  0  0  0  0  0  0  0  0  0
   10.8589   -2.1733   -1.1783 H   0  0  0  0  0  0  0  0  0  0  0  0
    9.2256    0.4902    1.7151 H   0  0  0  0  0  0  0  0  0  0  0  0
    9.2137   -0.3712   -1.2116 H   0  0  0  0  0  0  0  0  0  0  0  0
   10.8705    1.4488   -1.6289 H   0  0  0  0  0  0  0  0  0  0  0  0
   11.5259    0.1538   -0.5598 H   0  0  0  0  0  0  0  0  0  0  0  0
   11.0151    1.7253    0.1540 H   0  0  0  0  0  0  0  0  0  0  0  0
    8.8082    3.4421   -1.2200 H   0  0  0  0  0  0  0  0  0  0  0  0
    9.3166    2.9093    1.5640 H   0  0  0  0  0  0  0  0  0  0  0  0
    7.1368    3.6839    2.6135 H   0  0  0  0  0  0  0  0  0  0  0  0
    6.3395    3.4622    1.0056 H   0  0  0  0  0  0  0  0  0  0  0  0
    7.0856    2.0615    1.8447 H   0  0  0  0  0  0  0  0  0  0  0  0
    8.1359    6.8849    0.7428 H   0  0  0  0  0  0  0  0  0  0  0  0
    6.8720    4.6483   -0.9022 H   0  0  0  0  0  0  0  0  0  0  0  0
    8.6034    5.7762   -2.2082 H   0  0  0  0  0  0  0  0  0  0  0  0
    6.9748    6.2428   -2.8164 H   0  0  0  0  0  0  0  0  0  0  0  0
    7.9398    7.3924   -1.7939 H   0  0  0  0  0  0  0  0  0  0  0  0
    5.7989    8.1797   -1.4057 H   0  0  0  0  0  0  0  0  0  0  0  0
    3.2290    6.6268   -1.1318 H   0  0  0  0  0  0  0  0  0  0  0  0
    2.3140    8.3060   -2.7481 H   0  0  0  0  0  0  0  0  0  0  0  0
    3.7840    7.4779   -3.3778 H   0  0  0  0  0  0  0  0  0  0  0  0
    3.9026    9.1654   -2.7437 H   0  0  0  0  0  0  0  0  0  0  0  0
    1.4510    9.2413    0.9222 H   0  0  0  0  0  0  0  0  0  0  0  0
    1.0537    7.0372   -1.0979 H   0  0  0  0  0  0  0  0  0  0  0  0
    1.0199    5.7975    3.0244 H   0  0  0  0  0  0  0  0  0  0  0  0
    0.7050    7.5337    2.6848 H   0  0  0  0  0  0  0  0  0  0  0  0
   -0.9618    8.1206    0.9535 H   0  0  0  0  0  0  0  0  0  0  0  0
   -0.6908    8.8233   -0.6698 H   0  0  0  0  0  0  0  0  0  0  0  0
   -2.9829    6.6428    1.1605 H   0  0  0  0  0  0  0  0  0  0  0  0
   -1.5349    5.5938    1.2967 H   0  0  0  0  0  0  0  0  0  0  0  0
  1  2  1  0
  2  3  2  0
  2  4  1  0
  4  5  1  0
  5  6  1  0
  6  7  1  0
  7  8  1  0
  8  9  1  0
  9 10  1  0
 10 11  2  0
 11 12  1  0
 12 13  2  0
 13 14  1  0
 13 15  1  0
 15 16  1  0
 16 17  1  0
 17 18  1  0
 18 19  1  0
 19 20  1  0
 20 21  2  0
 20 22  1  0
 22 23  1  0
 22 24  1  0
 24 25  1  0
 25 26  2  0
 25 27  1  0
 27 28  1  0
 27 29  1  0
 29 30  1  0
 30 31  2  0
 30 32  1  0
 32 33  1  0
 32 34  1  0
 34 35  1  0
 35 36  2  0
 18 37  1  0
 37 38  2  0
 37 39  1  0
 39 40  1  0
 40 41  1  0
 40 42  1  0
 42 43  2  0
 42 44  1  0
 44 45  1  0
 45 46  1  0
 45 47  1  0
 47 48  2  0
 47 49  1  0
 49 50  1  0
 50 51  1  0
 50 52  1  0
 52 53  2  0
 52 54  1  0
 54 55  1  0
 55 56  1  0
 55 57  1  0
 57 58  2  0
 57 59  1  0
 59 60  1  0
 60 61  1  0
 60 62  1  0
 62 63  2  0
 62 64  1  0
 64 65  1  0
 65 66  1  0
 65 67  1  0
 67 68  2  0
 67 69  1  0
 69 70  1  0
 70 71  1  0
 70 72  1  0
 72 73  2  0
 72 74  1  0
 74 75  1  0
 75 76  1  0
 75 77  1  0
 77 78  2  0
 77 79  1  0
 79 80  1  0
 80 81  1  0
 80 82  1  0
 82 83  2  0
 82 84  1  0
 84 85  1  0
 85 86  1  0
 86 87  1  0
 86 88  2  0
 85 89  1  0
 89 90  1  0
 90 91  1  0
 35  5  1  0
 14  9  2  0
 91 11  1  0
  1 92  1  0
  1 93  1  0
  1 94  1  0
  4 95  1  0
  5 96  1  6
  6 97  1  0
  6 98  1  0
  8 99  1  0
  8100  1  0
 10101  1  0
 12102  1  0
 14103  1  0
 15104  1  0
 15105  1  0
 17106  1  0
 17107  1  0
 18108  1  6
 19109  1  0
 22110  1  1
 23111  1  0
 23112  1  0
 23113  1  0
 24114  1  0
 27115  1  6
 28116  1  0
 28117  1  0
 28118  1  0
 29119  1  0
 32120  1  6
 33121  1  0
 33122  1  0
 33123  1  0
 34124  1  0
 39125  1  0
 40126  1  6
 41127  1  0
 41128  1  0
 41129  1  0
 44130  1  0
 45131  1  6
 46132  1  0
 46133  1  0
 46134  1  0
 49135  1  0
 50136  1  6
 51137  1  0
 51138  1  0
 51139  1  0
 54140  1  0
 55141  1  6
 56142  1  0
 56143  1  0
 56144  1  0
 59145  1  0
 60146  1  6
 61147  1  0
 61148  1  0
 61149  1  0
 64150  1  0
 65151  1  6
 66152  1  0
 66153  1  0
 66154  1  0
 69155  1  0
 70156  1  1
 71157  1  0
 71158  1  0
 71159  1  0
 74160  1  0
 75161  1  6
 76162  1  0
 76163  1  0
 76164  1  0
 79165  1  0
 80166  1  6
 81167  1  0
 81168  1  0
 81169  1  0
 84170  1  0
 85171  1  6
 87172  1  0
 87173  1  0
 89174  1  0
 89175  1  0
 91176  1  0
 91177  1  0
M  END
