
     RDKit          3D

127129  0  0  0  0  0  0  0  0999 V2000
    6.6914   -6.3469    2.1265 C   0  0  0  0  0  0  0  0  0  0  0  0
    6.9534   -6.4698    0.6514 C   0  0  0  0  0  0  0  0  0  0  0  0
    7.4905   -7.5234    0.2119 O   0  0  0  0  0  0  0  0  0  0  0  0
    6.5929   -5.4297   -0.2739 N   0  0  0  0  0  0  0  0  0  0  0  0
    6.0694   -4.1122    0.1158 C   0  0  2  0  0  0  0  0  0  0  0  0
    4.9695   -3.6787   -0.8687 C   0  0  0  0  0  0  0  0  0  0  0  0
    3.7106   -4.9993   -1.0919 S   0  0  0  0  0  0  0  0  0  0  0  0
    2.6717   -4.5855    0.3660 C   0  0  0  0  0  0  0  0  0  0  0  0
    1.4401   -3.8253   -0.0539 C   0  0  0  0  0  0  0  0  0  0  0  0
    1.1580   -2.5703    0.5105 C   0  0  0  0  0  0  0  0  0  0  0  0
   -0.0549   -1.9217    0.2207 C   0  0  0  0  0  0  0  0  0  0  0  0
   -0.9577   -2.5050   -0.6812 C   0  0  0  0  0  0  0  0  0  0  0  0
   -0.6588   -3.7321   -1.2942 C   0  0  0  0  0  0  0  0  0  0  0  0
    0.5224   -4.4022   -0.9493 C   0  0  0  0  0  0  0  0  0  0  0  0
   -1.5997   -4.3228   -2.3098 C   0  0  0  0  0  0  0  0  0  0  0  0
   -2.9252   -5.2889   -1.4980 S   0  0  0  0  0  0  0  0  0  0  0  0
   -4.1153   -3.9144   -1.2426 C   0  0  0  0  0  0  0  0  0  0  0  0
   -5.5732   -4.4110   -1.3921 C   0  0  1  0  0  0  0  0  0  0  0  0
   -5.8990   -5.5111   -0.4191 C   0  0  0  0  0  0  0  0  0  0  0  0
   -6.5469   -6.7064   -0.8690 N   0  0  0  0  0  0  0  0  0  0  0  0
   -5.6699   -5.3584    0.8155 O   0  0  0  0  0  0  0  0  0  0  0  0
   -6.5864   -3.3514   -1.2597 N   0  0  0  0  0  0  0  0  0  0  0  0
   -6.4035   -2.0685   -0.6342 C   0  0  0  0  0  0  0  0  0  0  0  0
   -5.3615   -1.3952   -0.8688 O   0  0  0  0  0  0  0  0  0  0  0  0
   -7.5317   -1.4340    0.1437 C   0  0  1  0  0  0  0  0  0  0  0  0
   -8.1735   -2.4376    1.1108 C   0  0  0  0  0  0  0  0  0  0  0  0
   -7.0469   -0.2826    0.9159 N   0  0  0  0  0  0  0  0  0  0  0  0
   -7.4398    1.0794    0.6831 C   0  0  0  0  0  0  0  0  0  0  0  0
   -7.5392    1.8524    1.6768 O   0  0  0  0  0  0  0  0  0  0  0  0
   -7.6199    1.6260   -0.7182 C   0  0  1  0  0  0  0  0  0  0  0  0
   -8.2758    3.0135   -0.7364 C   0  0  0  0  0  0  0  0  0  0  0  0
   -6.3465    1.6407   -1.4497 N   0  0  0  0  0  0  0  0  0  0  0  0
   -5.1026    2.0368   -0.8597 C   0  0  0  0  0  0  0  0  0  0  0  0
   -4.2342    1.1582   -0.6387 O   0  0  0  0  0  0  0  0  0  0  0  0
   -4.7956    3.4814   -0.5626 C   0  0  1  0  0  0  0  0  0  0  0  0
   -4.7501    3.7521    0.9427 C   0  0  0  0  0  0  0  0  0  0  0  0
   -3.5626    3.9145   -1.2390 N   0  0  0  0  0  0  0  0  0  0  0  0
   -2.2862    3.2685   -1.1010 C   0  0  0  0  0  0  0  0  0  0  0  0
   -1.7466    2.7611   -2.1303 O   0  0  0  0  0  0  0  0  0  0  0  0
   -1.5132    3.2977    0.1992 C   0  0  1  0  0  0  0  0  0  0  0  0
   -1.3167    1.8927    0.7933 C   0  0  0  0  0  0  0  0  0  0  0  0
   -0.3697    0.7565   -0.2842 S   0  0  0  0  0  0  0  0  0  0  0  0
   -0.4170   -0.6285    0.9045 C   0  0  0  0  0  0  0  0  0  0  0  0
   -0.2264    3.9832    0.0213 N   0  0  0  0  0  0  0  0  0  0  0  0
    0.4594    4.5941    1.1271 C   0  0  0  0  0  0  0  0  0  0  0  0
    0.1166    4.3195    2.3108 O   0  0  0  0  0  0  0  0  0  0  0  0
    1.5120    5.6444    0.8776 C   0  0  1  0  0  0  0  0  0  0  0  0
    0.8541    7.0248    0.8242 C   0  0  0  0  0  0  0  0  0  0  0  0
    2.5225    5.6147    1.9437 N   0  0  0  0  0  0  0  0  0  0  0  0
    3.8922    5.2302    1.7576 C   0  0  0  0  0  0  0  0  0  0  0  0
    4.4539    4.5511    2.6657 O   0  0  0  0  0  0  0  0  0  0  0  0
    4.7110    5.7553    0.5931 C   0  0  1  0  0  0  0  0  0  0  0  0
    6.2270    5.6522    0.8201 C   0  0  0  0  0  0  0  0  0  0  0  0
    4.3386    5.1501   -0.6946 N   0  0  0  0  0  0  0  0  0  0  0  0
    4.6403    3.8095   -1.1395 C   0  0  0  0  0  0  0  0  0  0  0  0
    4.7773    3.6066   -2.3782 O   0  0  0  0  0  0  0  0  0  0  0  0
    4.6118    2.6125   -0.2112 C   0  0  1  0  0  0  0  0  0  0  0  0
    3.2235    1.9710   -0.3061 C   0  0  0  0  0  0  0  0  0  0  0  0
    5.6566    1.6470   -0.5827 N   0  0  0  0  0  0  0  0  0  0  0  0
    5.8842    0.4255    0.1454 C   0  0  0  0  0  0  0  0  0  0  0  0
    5.3219    0.2515    1.2568 O   0  0  0  0  0  0  0  0  0  0  0  0
    6.6733   -0.7152   -0.4727 C   0  0  1  0  0  0  0  0  0  0  0  0
    7.9990   -0.2484   -1.1002 C   0  0  0  0  0  0  0  0  0  0  0  0
    6.9518   -1.7482    0.5351 N   0  0  0  0  0  0  0  0  0  0  0  0
    7.1957   -3.1074    0.1510 C   0  0  0  0  0  0  0  0  0  0  0  0
    8.3779   -3.4700   -0.0843 O   0  0  0  0  0  0  0  0  0  0  0  0
    7.2415   -5.4676    2.5308 H   0  0  0  0  0  0  0  0  0  0  0  0
    7.0404   -7.2592    2.6524 H   0  0  0  0  0  0  0  0  0  0  0  0
    5.6051   -6.2296    2.3006 H   0  0  0  0  0  0  0  0  0  0  0  0
    6.8449   -5.5731   -1.2804 H   0  0  0  0  0  0  0  0  0  0  0  0
    5.6237   -4.1520    1.1255 H   0  0  0  0  0  0  0  0  0  0  0  0
    4.4731   -2.7442   -0.5233 H   0  0  0  0  0  0  0  0  0  0  0  0
    5.4208   -3.4775   -1.8608 H   0  0  0  0  0  0  0  0  0  0  0  0
    3.2486   -4.0178    1.1292 H   0  0  0  0  0  0  0  0  0  0  0  0
    2.3530   -5.5387    0.8449 H   0  0  0  0  0  0  0  0  0  0  0  0
    1.8703   -2.1084    1.1856 H   0  0  0  0  0  0  0  0  0  0  0  0
   -1.8825   -1.9935   -0.9248 H   0  0  0  0  0  0  0  0  0  0  0  0
    0.7234   -5.3823   -1.3739 H   0  0  0  0  0  0  0  0  0  0  0  0
   -2.0031   -3.5377   -2.9783 H   0  0  0  0  0  0  0  0  0  0  0  0
   -1.0437   -5.0203   -2.9725 H   0  0  0  0  0  0  0  0  0  0  0  0
   -3.9594   -3.1366   -2.0116 H   0  0  0  0  0  0  0  0  0  0  0  0
   -3.9441   -3.4935   -0.2279 H   0  0  0  0  0  0  0  0  0  0  0  0
   -5.6581   -4.8198   -2.4229 H   0  0  0  0  0  0  0  0  0  0  0  0
   -6.7219   -7.4962   -0.1983 H   0  0  0  0  0  0  0  0  0  0  0  0
   -6.8560   -6.8174   -1.8642 H   0  0  0  0  0  0  0  0  0  0  0  0
   -7.5622   -3.6039   -1.5496 H   0  0  0  0  0  0  0  0  0  0  0  0
   -8.3124   -1.1214   -0.5731 H   0  0  0  0  0  0  0  0  0  0  0  0
   -8.6506   -3.2785    0.5599 H   0  0  0  0  0  0  0  0  0  0  0  0
   -8.9617   -1.9348    1.7170 H   0  0  0  0  0  0  0  0  0  0  0  0
   -7.4056   -2.8481    1.8023 H   0  0  0  0  0  0  0  0  0  0  0  0
   -6.4532   -0.4732    1.7516 H   0  0  0  0  0  0  0  0  0  0  0  0
   -8.3265    0.9652   -1.2705 H   0  0  0  0  0  0  0  0  0  0  0  0
   -8.3189    3.3983   -1.7732 H   0  0  0  0  0  0  0  0  0  0  0  0
   -7.7207    3.7366   -0.1056 H   0  0  0  0  0  0  0  0  0  0  0  0
   -9.3118    2.9459   -0.3475 H   0  0  0  0  0  0  0  0  0  0  0  0
   -6.2943    1.0516   -2.3139 H   0  0  0  0  0  0  0  0  0  0  0  0
   -5.6197    4.0976   -0.9699 H   0  0  0  0  0  0  0  0  0  0  0  0
   -4.2689    4.7338    1.1527 H   0  0  0  0  0  0  0  0  0  0  0  0
   -4.1949    2.9488    1.4830 H   0  0  0  0  0  0  0  0  0  0  0  0
   -5.7798    3.7895    1.3540 H   0  0  0  0  0  0  0  0  0  0  0  0
   -3.6994    4.4311   -2.1305 H   0  0  0  0  0  0  0  0  0  0  0  0
   -2.0967    3.8925    0.9328 H   0  0  0  0  0  0  0  0  0  0  0  0
   -0.7813    1.9702    1.7660 H   0  0  0  0  0  0  0  0  0  0  0  0
   -2.3100    1.4499    1.0117 H   0  0  0  0  0  0  0  0  0  0  0  0
    0.2831   -0.4039    1.7373 H   0  0  0  0  0  0  0  0  0  0  0  0
   -1.4385   -0.7365    1.3368 H   0  0  0  0  0  0  0  0  0  0  0  0
    0.0965    4.2291   -0.9410 H   0  0  0  0  0  0  0  0  0  0  0  0
    1.9750    5.4450   -0.1016 H   0  0  0  0  0  0  0  0  0  0  0  0
    0.1229    7.0696   -0.0170 H   0  0  0  0  0  0  0  0  0  0  0  0
    1.6223    7.8131    0.6557 H   0  0  0  0  0  0  0  0  0  0  0  0
    0.3154    7.2462    1.7707 H   0  0  0  0  0  0  0  0  0  0  0  0
    2.1916    5.7344    2.9310 H   0  0  0  0  0  0  0  0  0  0  0  0
    4.4820    6.8424    0.5373 H   0  0  0  0  0  0  0  0  0  0  0  0
    6.5109    6.1785    1.7514 H   0  0  0  0  0  0  0  0  0  0  0  0
    6.5481    4.5944    0.8934 H   0  0  0  0  0  0  0  0  0  0  0  0
    6.7730    6.1352   -0.0167 H   0  0  0  0  0  0  0  0  0  0  0  0
    3.9816    5.8082   -1.4258 H   0  0  0  0  0  0  0  0  0  0  0  0
    4.7890    2.9268    0.8381 H   0  0  0  0  0  0  0  0  0  0  0  0
    2.4404    2.7365   -0.1146 H   0  0  0  0  0  0  0  0  0  0  0  0
    3.0928    1.1640    0.4429 H   0  0  0  0  0  0  0  0  0  0  0  0
    3.0488    1.5373   -1.3179 H   0  0  0  0  0  0  0  0  0  0  0  0
    6.3396    1.9122   -1.3321 H   0  0  0  0  0  0  0  0  0  0  0  0
    6.0397   -1.1388   -1.2818 H   0  0  0  0  0  0  0  0  0  0  0  0
    8.6150    0.3157   -0.3598 H   0  0  0  0  0  0  0  0  0  0  0  0
    8.5765   -1.1349   -1.4456 H   0  0  0  0  0  0  0  0  0  0  0  0
    7.8116    0.3925   -1.9898 H   0  0  0  0  0  0  0  0  0  0  0  0
    7.4515   -1.4254    1.4000 H   0  0  0  0  0  0  0  0  0  0  0  0
  1  2  1  0
  2  3  2  0
  2  4  1  0
  4  5  1  0
  5  6  1  0
  6  7  1  0
  7  8  1  0
  8  9  1  0
  9 10  2  0
 10 11  1  0
 11 12  2  0
 12 13  1  0
 13 14  2  0
 13 15  1  0
 15 16  1  0
 16 17  1  0
 17 18  1  0
 18 19  1  0
 19 20  1  0
 19 21  2  0
 18 22  1  0
 22 23  1  0
 23 24  2  0
 23 25  1  0
 25 26  1  0
 25 27  1  0
 27 28  1  0
 28 29  2  0
 28 30  1  0
 30 31  1  0
 30 32  1  0
 32 33  1  0
 33 34  2  0
 33 35  1  0
 35 36  1  0
 35 37  1  0
 37 38  1  0
 38 39  2  0
 38 40  1  0
 40 41  1  0
 41 42  1  0
 42 43  1  0
 40 44  1  0
 44 45  1  0
 45 46  2  0
 45 47  1  0
 47 48  1  0
 47 49  1  0
 49 50  1  0
 50 51  2  0
 50 52  1  0
 52 53  1  0
 52 54  1  0
 54 55  1  0
 55 56  2  0
 55 57  1  0
 57 58  1  0
 57 59  1  0
 59 60  1  0
 60 61  2  0
 60 62  1  0
 62 63  1  0
 62 64  1  0
 64 65  1  0
 65 66  2  0
 65  5  1  0
 14  9  1  0
 43 11  1  0
  1 67  1  0
  1 68  1  0
  1 69  1  0
  4 70  1  0
  5 71  1  1
  6 72  1  0
  6 73  1  0
  8 74  1  0
  8 75  1  0
 10 76  1  0
 12 77  1  0
 14 78  1  0
 15 79  1  0
 15 80  1  0
 17 81  1  0
 17 82  1  0
 18 83  1  6
 20 84  1  0
 20 85  1  0
 22 86  1  0
 25 87  1  6
 26 88  1  0
 26 89  1  0
 26 90  1  0
 27 91  1  0
 30 92  1  6
 31 93  1  0
 31 94  1  0
 31 95  1  0
 32 96  1  0
 35 97  1  6
 36 98  1  0
 36 99  1  0
 36100  1  0
 37101  1  0
 40102  1  1
 41103  1  0
 41104  1  0
 43105  1  0
 43106  1  0
 44107  1  0
 47108  1  6
 48109  1  0
 48110  1  0
 48111  1  0
 49112  1  0
 52113  1  6
 53114  1  0
 53115  1  0
 53116  1  0
 54117  1  0
 57118  1  1
 58119  1  0
 58120  1  0
 58121  1  0
 59122  1  0
 62123  1  6
 63124  1  0
 63125  1  0
 63126  1  0
 64127  1  0
M  END
