
     RDKit          3D

137139  0  0  0  0  0  0  0  0999 V2000
   -5.1312    6.0008   -2.2551 C   0  0  0  0  0  0  0  0  0  0  0  0
   -5.1227    4.5309   -2.5699 C   0  0  0  0  0  0  0  0  0  0  0  0
   -5.4313    4.1639   -3.7366 O   0  0  0  0  0  0  0  0  0  0  0  0
   -4.7247    3.5303   -1.6074 N   0  0  0  0  0  0  0  0  0  0  0  0
   -4.9035    3.6196   -0.1485 C   0  0  1  0  0  0  0  0  0  0  0  0
   -3.7393    4.4257    0.4705 C   0  0  0  0  0  0  0  0  0  0  0  0
   -3.8134    4.5100    2.3044 S   0  0  0  0  0  0  0  0  0  0  0  0
   -3.1875    2.8265    2.6889 C   0  0  0  0  0  0  0  0  0  0  0  0
   -1.7655    2.5663    2.2585 C   0  0  0  0  0  0  0  0  0  0  0  0
   -1.3843    1.2522    1.9260 C   0  0  0  0  0  0  0  0  0  0  0  0
   -0.0336    0.9347    1.7033 C   0  0  0  0  0  0  0  0  0  0  0  0
    0.9319    1.9460    1.7785 C   0  0  0  0  0  0  0  0  0  0  0  0
    0.5639    3.2590    2.0959 C   0  0  0  0  0  0  0  0  0  0  0  0
   -0.7803    3.5600    2.3586 C   0  0  0  0  0  0  0  0  0  0  0  0
    1.6294    4.3000    2.2529 C   0  0  0  0  0  0  0  0  0  0  0  0
    2.4409    4.6343    0.6467 S   0  0  0  0  0  0  0  0  0  0  0  0
    3.9736    5.3127    1.3950 C   0  0  0  0  0  0  0  0  0  0  0  0
    4.8843    5.9175    0.3172 C   0  0  1  0  0  0  0  0  0  0  0  0
    6.0910    6.5670    0.9581 C   0  0  0  0  0  0  0  0  0  0  0  0
    6.4523    7.9137    0.6346 N   0  0  0  0  0  0  0  0  0  0  0  0
    6.7808    5.9381    1.8095 O   0  0  0  0  0  0  0  0  0  0  0  0
    5.2696    4.9103   -0.6744 N   0  0  0  0  0  0  0  0  0  0  0  0
    6.1399    3.8042   -0.4052 C   0  0  0  0  0  0  0  0  0  0  0  0
    7.3409    4.0281   -0.0924 O   0  0  0  0  0  0  0  0  0  0  0  0
    5.6252    2.3863   -0.5539 C   0  0  1  0  0  0  0  0  0  0  0  0
    5.3916    2.0620   -2.0308 C   0  0  0  0  0  0  0  0  0  0  0  0
    6.5371    1.4025    0.0491 N   0  0  0  0  0  0  0  0  0  0  0  0
    6.1709    0.0186    0.2144 C   0  0  0  0  0  0  0  0  0  0  0  0
    4.9576   -0.3038    0.2947 O   0  0  0  0  0  0  0  0  0  0  0  0
    7.2486   -1.0407    0.2283 C   0  0  1  0  0  0  0  0  0  0  0  0
    8.1130   -0.9249    1.4900 C   0  0  0  0  0  0  0  0  0  0  0  0
    6.6777   -2.3898    0.1354 N   0  0  0  0  0  0  0  0  0  0  0  0
    6.1929   -2.9223   -1.1111 C   0  0  0  0  0  0  0  0  0  0  0  0
    5.6860   -2.1526   -1.9683 O   0  0  0  0  0  0  0  0  0  0  0  0
    6.3619   -4.3823   -1.4343 C   0  0  1  0  0  0  0  0  0  0  0  0
    7.8287   -4.6801   -1.7642 C   0  0  0  0  0  0  0  0  0  0  0  0
    5.9271   -5.2198   -0.3075 N   0  0  0  0  0  0  0  0  0  0  0  0
    4.7135   -5.9880   -0.3062 C   0  0  0  0  0  0  0  0  0  0  0  0
    4.6330   -6.9983    0.4485 O   0  0  0  0  0  0  0  0  0  0  0  0
    3.5199   -5.6088   -1.1518 C   0  0  1  0  0  0  0  0  0  0  0  0
    3.3818   -6.5572   -2.3385 C   0  0  0  0  0  0  0  0  0  0  0  0
    2.3118   -5.6409   -0.3358 N   0  0  0  0  0  0  0  0  0  0  0  0
    2.0396   -4.6012    0.6006 C   0  0  0  0  0  0  0  0  0  0  0  0
    2.5656   -4.6373    1.7436 O   0  0  0  0  0  0  0  0  0  0  0  0
    1.1530   -3.4430    0.2290 C   0  0  1  0  0  0  0  0  0  0  0  0
    1.9910   -2.1652    0.0438 C   0  0  0  0  0  0  0  0  0  0  0  0
    0.9332   -0.6980   -0.2686 S   0  0  0  0  0  0  0  0  0  0  0  0
    0.3998   -0.4799    1.4677 C   0  0  0  0  0  0  0  0  0  0  0  0
    0.4088   -3.7428   -1.0083 N   0  0  0  0  0  0  0  0  0  0  0  0
   -0.9804   -4.0976   -1.0517 C   0  0  0  0  0  0  0  0  0  0  0  0
   -1.3641   -4.9225   -1.9201 O   0  0  0  0  0  0  0  0  0  0  0  0
   -2.0248   -3.3446   -0.2450 C   0  0  1  0  0  0  0  0  0  0  0  0
   -2.5803   -2.1940   -1.0915 C   0  0  0  0  0  0  0  0  0  0  0  0
   -3.1202   -4.2305    0.1476 N   0  0  0  0  0  0  0  0  0  0  0  0
   -4.0672   -3.8192    1.1489 C   0  0  0  0  0  0  0  0  0  0  0  0
   -3.6635   -3.2637    2.2136 O   0  0  0  0  0  0  0  0  0  0  0  0
   -5.5313   -4.0701    0.9267 C   0  0  1  0  0  0  0  0  0  0  0  0
   -5.9806   -5.3399    1.6498 C   0  0  0  0  0  0  0  0  0  0  0  0
   -6.3265   -2.9125    1.3515 N   0  0  0  0  0  0  0  0  0  0  0  0
   -6.1092   -1.6137    0.7914 C   0  0  0  0  0  0  0  0  0  0  0  0
   -5.1871   -0.8829    1.2639 O   0  0  0  0  0  0  0  0  0  0  0  0
   -7.0103   -1.0504   -0.2722 C   0  0  1  0  0  0  0  0  0  0  0  0
   -7.6126   -2.1341   -1.1682 C   0  0  0  0  0  0  0  0  0  0  0  0
   -8.0810   -0.2833    0.3701 N   0  0  0  0  0  0  0  0  0  0  0  0
   -8.1997    1.1554    0.3740 C   0  0  0  0  0  0  0  0  0  0  0  0
   -8.9456    1.6894    1.2314 O   0  0  0  0  0  0  0  0  0  0  0  0
   -7.5210    2.0312   -0.6647 C   0  0  1  0  0  0  0  0  0  0  0  0
   -8.2691    1.9575   -2.0051 C   0  0  0  0  0  0  0  0  0  0  0  0
   -7.4872    3.4287   -0.2018 N   0  0  0  0  0  0  0  0  0  0  0  0
   -6.2951    4.1283    0.2013 C   0  0  0  0  0  0  0  0  0  0  0  0
   -6.4217    5.2130    0.8283 O   0  0  0  0  0  0  0  0  0  0  0  0
   -4.1005    6.3493   -2.0296 H   0  0  0  0  0  0  0  0  0  0  0  0
   -5.4840    6.5722   -3.1365 H   0  0  0  0  0  0  0  0  0  0  0  0
   -5.8054    6.2301   -1.4070 H   0  0  0  0  0  0  0  0  0  0  0  0
   -4.4721    2.5858   -1.9904 H   0  0  0  0  0  0  0  0  0  0  0  0
   -4.8114    2.5917    0.2732 H   0  0  0  0  0  0  0  0  0  0  0  0
   -3.7348    5.4602    0.0912 H   0  0  0  0  0  0  0  0  0  0  0  0
   -2.7812    3.9574    0.1589 H   0  0  0  0  0  0  0  0  0  0  0  0
   -3.2137    2.7221    3.7992 H   0  0  0  0  0  0  0  0  0  0  0  0
   -3.8813    2.0618    2.2747 H   0  0  0  0  0  0  0  0  0  0  0  0
   -2.1293    0.4616    1.9134 H   0  0  0  0  0  0  0  0  0  0  0  0
    1.9792    1.7046    1.6478 H   0  0  0  0  0  0  0  0  0  0  0  0
   -1.0406    4.5540    2.7022 H   0  0  0  0  0  0  0  0  0  0  0  0
    2.3767    3.9202    2.9885 H   0  0  0  0  0  0  0  0  0  0  0  0
    1.2186    5.2574    2.6393 H   0  0  0  0  0  0  0  0  0  0  0  0
    3.6955    6.1062    2.1393 H   0  0  0  0  0  0  0  0  0  0  0  0
    4.5101    4.5062    1.9357 H   0  0  0  0  0  0  0  0  0  0  0  0
    4.2972    6.7008   -0.2054 H   0  0  0  0  0  0  0  0  0  0  0  0
    7.2335    8.3893    1.1523 H   0  0  0  0  0  0  0  0  0  0  0  0
    5.9263    8.4529   -0.0938 H   0  0  0  0  0  0  0  0  0  0  0  0
    4.8134    4.9505   -1.6191 H   0  0  0  0  0  0  0  0  0  0  0  0
    4.6551    2.3317   -0.0245 H   0  0  0  0  0  0  0  0  0  0  0  0
    5.0288    1.0172   -2.1417 H   0  0  0  0  0  0  0  0  0  0  0  0
    4.6286    2.7392   -2.4750 H   0  0  0  0  0  0  0  0  0  0  0  0
    6.3433    2.1589   -2.6013 H   0  0  0  0  0  0  0  0  0  0  0  0
    7.5180    1.6693    0.3040 H   0  0  0  0  0  0  0  0  0  0  0  0
    7.9114   -0.8752   -0.6514 H   0  0  0  0  0  0  0  0  0  0  0  0
    8.6849    0.0270    1.4907 H   0  0  0  0  0  0  0  0  0  0  0  0
    8.8422   -1.7661    1.5210 H   0  0  0  0  0  0  0  0  0  0  0  0
    7.4732   -0.9816    2.4033 H   0  0  0  0  0  0  0  0  0  0  0  0
    6.7049   -3.0109    0.9661 H   0  0  0  0  0  0  0  0  0  0  0  0
    5.7813   -4.6279   -2.3420 H   0  0  0  0  0  0  0  0  0  0  0  0
    8.1805   -4.0301   -2.5967 H   0  0  0  0  0  0  0  0  0  0  0  0
    8.4850   -4.5189   -0.8794 H   0  0  0  0  0  0  0  0  0  0  0  0
    7.9395   -5.7429   -2.0875 H   0  0  0  0  0  0  0  0  0  0  0  0
    6.5873   -5.3627    0.4930 H   0  0  0  0  0  0  0  0  0  0  0  0
    3.6492   -4.5771   -1.5479 H   0  0  0  0  0  0  0  0  0  0  0  0
    3.1688   -7.5827   -1.9860 H   0  0  0  0  0  0  0  0  0  0  0  0
    4.3175   -6.5682   -2.9423 H   0  0  0  0  0  0  0  0  0  0  0  0
    2.5524   -6.2203   -2.9868 H   0  0  0  0  0  0  0  0  0  0  0  0
    1.7992   -6.5409   -0.2100 H   0  0  0  0  0  0  0  0  0  0  0  0
    0.4662   -3.2958    1.0844 H   0  0  0  0  0  0  0  0  0  0  0  0
    2.6642   -2.2830   -0.8342 H   0  0  0  0  0  0  0  0  0  0  0  0
    2.6371   -1.9892    0.9283 H   0  0  0  0  0  0  0  0  0  0  0  0
   -0.4278   -1.1844    1.6756 H   0  0  0  0  0  0  0  0  0  0  0  0
    1.2288   -0.7036    2.1670 H   0  0  0  0  0  0  0  0  0  0  0  0
    0.9704   -3.9081   -1.8692 H   0  0  0  0  0  0  0  0  0  0  0  0
   -1.5788   -2.9066    0.6627 H   0  0  0  0  0  0  0  0  0  0  0  0
   -3.1302   -2.5967   -1.9741 H   0  0  0  0  0  0  0  0  0  0  0  0
   -1.7628   -1.5297   -1.4511 H   0  0  0  0  0  0  0  0  0  0  0  0
   -3.2802   -1.5825   -0.4922 H   0  0  0  0  0  0  0  0  0  0  0  0
   -3.3816   -5.0349   -0.4714 H   0  0  0  0  0  0  0  0  0  0  0  0
   -5.6974   -4.2317   -0.1665 H   0  0  0  0  0  0  0  0  0  0  0  0
   -7.0504   -5.5388    1.4098 H   0  0  0  0  0  0  0  0  0  0  0  0
   -5.3821   -6.2111    1.3062 H   0  0  0  0  0  0  0  0  0  0  0  0
   -5.8733   -5.2331    2.7522 H   0  0  0  0  0  0  0  0  0  0  0  0
   -7.0869   -3.0124    2.0553 H   0  0  0  0  0  0  0  0  0  0  0  0
   -6.3804   -0.4111   -0.9364 H   0  0  0  0  0  0  0  0  0  0  0  0
   -8.2633   -1.6635   -1.9454 H   0  0  0  0  0  0  0  0  0  0  0  0
   -8.2322   -2.8364   -0.5786 H   0  0  0  0  0  0  0  0  0  0  0  0
   -6.8176   -2.6951   -1.7018 H   0  0  0  0  0  0  0  0  0  0  0  0
   -8.6878   -0.8112    1.0364 H   0  0  0  0  0  0  0  0  0  0  0  0
   -6.4984    1.6743   -0.8417 H   0  0  0  0  0  0  0  0  0  0  0  0
   -9.3532    2.1291   -1.8552 H   0  0  0  0  0  0  0  0  0  0  0  0
   -7.8795    2.7172   -2.7092 H   0  0  0  0  0  0  0  0  0  0  0  0
   -8.1213    0.9550   -2.4662 H   0  0  0  0  0  0  0  0  0  0  0  0
   -8.4012    3.9227   -0.0769 H   0  0  0  0  0  0  0  0  0  0  0  0
  1  2  1  0
  2  3  2  0
  2  4  1  0
  4  5  1  0
  5  6  1  0
  6  7  1  0
  7  8  1  0
  8  9  1  0
  9 10  2  0
 10 11  1  0
 11 12  2  0
 12 13  1  0
 13 14  2  0
 13 15  1  0
 15 16  1  0
 16 17  1  0
 17 18  1  0
 18 19  1  0
 19 20  1  0
 19 21  2  0
 18 22  1  0
 22 23  1  0
 23 24  2  0
 23 25  1  0
 25 26  1  0
 25 27  1  0
 27 28  1  0
 28 29  2  0
 28 30  1  0
 30 31  1  0
 30 32  1  0
 32 33  1  0
 33 34  2  0
 33 35  1  0
 35 36  1  0
 35 37  1  0
 37 38  1  0
 38 39  2  0
 38 40  1  0
 40 41  1  0
 40 42  1  0
 42 43  1  0
 43 44  2  0
 43 45  1  0
 45 46  1  0
 46 47  1  0
 47 48  1  0
 45 49  1  0
 49 50  1  0
 50 51  2  0
 50 52  1  0
 52 53  1  0
 52 54  1  0
 54 55  1  0
 55 56  2  0
 55 57  1  0
 57 58  1  0
 57 59  1  0
 59 60  1  0
 60 61  2  0
 60 62  1  0
 62 63  1  0
 62 64  1  0
 64 65  1  0
 65 66  2  0
 65 67  1  0
 67 68  1  0
 67 69  1  0
 69 70  1  0
 70 71  2  0
 70  5  1  0
 14  9  1  0
 48 11  1  0
  1 72  1  0
  1 73  1  0
  1 74  1  0
  4 75  1  0
  5 76  1  1
  6 77  1  0
  6 78  1  0
  8 79  1  0
  8 80  1  0
 10 81  1  0
 12 82  1  0
 14 83  1  0
 15 84  1  0
 15 85  1  0
 17 86  1  0
 17 87  1  0
 18 88  1  6
 20 89  1  0
 20 90  1  0
 22 91  1  0
 25 92  1  1
 26 93  1  0
 26 94  1  0
 26 95  1  0
 27 96  1  0
 30 97  1  6
 31 98  1  0
 31 99  1  0
 31100  1  0
 32101  1  0
 35102  1  6
 36103  1  0
 36104  1  0
 36105  1  0
 37106  1  0
 40107  1  6
 41108  1  0
 41109  1  0
 41110  1  0
 42111  1  0
 45112  1  1
 46113  1  0
 46114  1  0
 48115  1  0
 48116  1  0
 49117  1  0
 52118  1  1
 53119  1  0
 53120  1  0
 53121  1  0
 54122  1  0
 57123  1  6
 58124  1  0
 58125  1  0
 58126  1  0
 59127  1  0
 62128  1  6
 63129  1  0
 63130  1  0
 63131  1  0
 64132  1  0
 67133  1  6
 68134  1  0
 68135  1  0
 68136  1  0
 69137  1  0
M  END
