
     RDKit          3D

187189  0  0  0  0  0  0  0  0999 V2000
   11.9469   -4.8130    0.1206 C   0  0  0  0  0  0  0  0  0  0  0  0
   11.0012   -3.7981   -0.4297 C   0  0  0  0  0  0  0  0  0  0  0  0
   10.9128   -3.6455   -1.6742 O   0  0  0  0  0  0  0  0  0  0  0  0
   10.2154   -2.9913    0.4633 N   0  0  0  0  0  0  0  0  0  0  0  0
    9.3144   -1.9140    0.0301 C   0  0  2  0  0  0  0  0  0  0  0  0
    8.0948   -2.5339   -0.6766 C   0  0  0  0  0  0  0  0  0  0  0  0
    6.7565   -1.3128   -0.8802 S   0  0  0  0  0  0  0  0  0  0  0  0
    5.6449   -2.3858   -1.8550 C   0  0  0  0  0  0  0  0  0  0  0  0
    4.2482   -2.2474   -1.3324 C   0  0  0  0  0  0  0  0  0  0  0  0
    3.8399   -3.0078   -0.2244 C   0  0  0  0  0  0  0  0  0  0  0  0
    2.5578   -2.8433    0.3237 C   0  0  0  0  0  0  0  0  0  0  0  0
    1.6995   -1.8677   -0.2198 C   0  0  0  0  0  0  0  0  0  0  0  0
    2.0774   -1.1300   -1.3539 C   0  0  0  0  0  0  0  0  0  0  0  0
    3.3566   -1.3265   -1.9053 C   0  0  0  0  0  0  0  0  0  0  0  0
    1.1410   -0.1096   -1.9496 C   0  0  0  0  0  0  0  0  0  0  0  0
    1.1609    1.4587   -1.0005 S   0  0  0  0  0  0  0  0  0  0  0  0
    2.9076    1.8807   -1.3397 C   0  0  0  0  0  0  0  0  0  0  0  0
    3.2186    3.3524   -1.0298 C   0  0  2  0  0  0  0  0  0  0  0  0
    4.5956    3.6654   -1.4466 N   0  0  0  0  0  0  0  0  0  0  0  0
    5.7281    2.9114   -0.9955 C   0  0  0  0  0  0  0  0  0  0  0  0
    6.3526    2.1913   -1.8248 O   0  0  0  0  0  0  0  0  0  0  0  0
    6.2435    3.0433    0.4173 C   0  0  1  0  0  0  0  0  0  0  0  0
    6.1177    1.7130    1.1655 C   0  0  0  0  0  0  0  0  0  0  0  0
    7.6518    3.4561    0.4018 N   0  0  0  0  0  0  0  0  0  0  0  0
    8.3392    3.8869    1.5800 C   0  0  0  0  0  0  0  0  0  0  0  0
    7.6919    4.4440    2.5183 O   0  0  0  0  0  0  0  0  0  0  0  0
    9.8478    3.8280    1.6353 C   0  0  1  0  0  0  0  0  0  0  0  0
   10.3905    3.8406    3.0713 C   0  0  0  0  0  0  0  0  0  0  0  0
   10.3579    2.6658    0.8925 N   0  0  0  0  0  0  0  0  0  0  0  0
   10.3245    1.3210    1.4043 C   0  0  0  0  0  0  0  0  0  0  0  0
    9.4387    0.9737    2.2244 O   0  0  0  0  0  0  0  0  0  0  0  0
   11.4162    0.3597    0.9981 C   0  0  1  0  0  0  0  0  0  0  0  0
   11.6946   -0.7354    2.0338 C   0  0  0  0  0  0  0  0  0  0  0  0
   11.1998   -0.1662   -0.3563 N   0  0  0  0  0  0  0  0  0  0  0  0
   10.0676   -0.9172   -0.8379 C   0  0  0  0  0  0  0  0  0  0  0  0
    9.7645   -0.8047   -2.0608 O   0  0  0  0  0  0  0  0  0  0  0  0
    2.9978    3.7236    0.4261 C   0  0  0  0  0  0  0  0  0  0  0  0
    2.9404    2.8183    1.2983 O   0  0  0  0  0  0  0  0  0  0  0  0
    2.9319    5.0934    0.8585 N   0  0  0  0  0  0  0  0  0  0  0  0
    2.3725    6.1897    0.0502 C   0  0  2  0  0  0  0  0  0  0  0  0
    3.5068    6.9521   -0.6442 C   0  0  0  0  0  0  0  0  0  0  0  0
    1.5829    7.1533    0.9121 C   0  0  0  0  0  0  0  0  0  0  0  0
    1.8868    7.3068    2.1322 O   0  0  0  0  0  0  0  0  0  0  0  0
    0.5904    8.0200    0.3428 N   0  0  0  0  0  0  0  0  0  0  0  0
   -0.5176    7.5514   -0.4969 C   0  0  2  0  0  0  0  0  0  0  0  0
   -0.4654    8.2927   -1.8369 C   0  0  0  0  0  0  0  0  0  0  0  0
   -1.8483    7.7998    0.1928 C   0  0  0  0  0  0  0  0  0  0  0  0
   -1.8635    8.3632    1.3186 O   0  0  0  0  0  0  0  0  0  0  0  0
   -3.1068    7.4479   -0.4107 N   0  0  0  0  0  0  0  0  0  0  0  0
   -3.3104    6.2920   -1.2911 C   0  0  2  0  0  0  0  0  0  0  0  0
   -4.2372    6.6476   -2.4530 C   0  0  0  0  0  0  0  0  0  0  0  0
   -3.8076    5.0930   -0.5156 C   0  0  0  0  0  0  0  0  0  0  0  0
   -3.2761    3.9722   -0.7420 O   0  0  0  0  0  0  0  0  0  0  0  0
   -4.7911    5.1818    0.5265 N   0  0  0  0  0  0  0  0  0  0  0  0
   -6.0624    5.9094    0.3985 C   0  0  2  0  0  0  0  0  0  0  0  0
   -6.7512    6.0400    1.7592 C   0  0  0  0  0  0  0  0  0  0  0  0
   -6.9721    5.2121   -0.5844 C   0  0  0  0  0  0  0  0  0  0  0  0
   -7.6583    5.9079   -1.3859 O   0  0  0  0  0  0  0  0  0  0  0  0
   -7.0194    3.7829   -0.6836 N   0  0  0  0  0  0  0  0  0  0  0  0
   -8.1291    2.9635   -0.1655 C   0  0  2  0  0  0  0  0  0  0  0  0
   -9.4723    3.7060   -0.2747 C   0  0  0  0  0  0  0  0  0  0  0  0
   -7.8365    2.5121    1.2539 C   0  0  0  0  0  0  0  0  0  0  0  0
   -6.6621    2.5994    1.7045 O   0  0  0  0  0  0  0  0  0  0  0  0
   -8.8614    1.9729    2.1058 N   0  0  0  0  0  0  0  0  0  0  0  0
   -9.8145    0.9463    1.6735 C   0  0  2  0  0  0  0  0  0  0  0  0
  -11.2183    1.3045    2.1777 C   0  0  0  0  0  0  0  0  0  0  0  0
   -9.3850   -0.3980    2.2096 C   0  0  0  0  0  0  0  0  0  0  0  0
   -9.4015   -0.5824    3.4584 O   0  0  0  0  0  0  0  0  0  0  0  0
   -8.8793   -1.4548    1.3687 N   0  0  0  0  0  0  0  0  0  0  0  0
   -8.9830   -1.4909   -0.1004 C   0  0  2  0  0  0  0  0  0  0  0  0
  -10.4356   -1.7432   -0.5187 C   0  0  0  0  0  0  0  0  0  0  0  0
   -8.0984   -2.5714   -0.6766 C   0  0  0  0  0  0  0  0  0  0  0  0
   -7.3795   -2.3190   -1.6773 O   0  0  0  0  0  0  0  0  0  0  0  0
   -8.1042   -3.8911   -0.1272 N   0  0  0  0  0  0  0  0  0  0  0  0
   -8.6896   -5.0202   -0.8482 C   0  0  2  0  0  0  0  0  0  0  0  0
   -9.6769   -5.7418    0.0758 C   0  0  0  0  0  0  0  0  0  0  0  0
   -7.5748   -5.9043   -1.3781 C   0  0  0  0  0  0  0  0  0  0  0  0
   -6.7623   -5.4064   -2.2053 O   0  0  0  0  0  0  0  0  0  0  0  0
   -7.4127   -7.2725   -0.9629 N   0  0  0  0  0  0  0  0  0  0  0  0
   -6.1219   -7.9621   -1.0798 C   0  0  2  0  0  0  0  0  0  0  0  0
   -6.3015   -9.4649   -0.8144 C   0  0  0  0  0  0  0  0  0  0  0  0
   -5.1362   -7.3606   -0.1250 C   0  0  0  0  0  0  0  0  0  0  0  0
   -5.3479   -7.4345    1.1176 O   0  0  0  0  0  0  0  0  0  0  0  0
   -4.0163   -6.6172   -0.6020 N   0  0  0  0  0  0  0  0  0  0  0  0
   -2.6730   -7.1831   -0.7577 C   0  0  2  0  0  0  0  0  0  0  0  0
   -2.6763   -8.3768   -1.7050 C   0  0  0  0  0  0  0  0  0  0  0  0
   -2.0835   -7.5431    0.5881 C   0  0  0  0  0  0  0  0  0  0  0  0
   -2.6791   -8.3748    1.3275 O   0  0  0  0  0  0  0  0  0  0  0  0
   -0.8788   -6.9298    1.0742 N   0  0  0  0  0  0  0  0  0  0  0  0
    0.2797   -6.6317    0.2236 C   0  0  2  0  0  0  0  0  0  0  0  0
    1.5535   -7.1847    0.8256 C   0  0  0  0  0  0  0  0  0  0  0  0
    2.7463   -7.2352    0.0455 N   0  0  0  0  0  0  0  0  0  0  0  0
    1.5795   -7.5863    2.0222 O   0  0  0  0  0  0  0  0  0  0  0  0
    0.3941   -5.1184   -0.0232 C   0  0  0  0  0  0  0  0  0  0  0  0
    0.3901   -4.1489    1.5344 S   0  0  0  0  0  0  0  0  0  0  0  0
    2.1615   -3.6641    1.5295 C   0  0  0  0  0  0  0  0  0  0  0  0
   12.4796   -5.3353   -0.7087 H   0  0  0  0  0  0  0  0  0  0  0  0
   12.6915   -4.3121    0.7686 H   0  0  0  0  0  0  0  0  0  0  0  0
   11.3835   -5.5579    0.7136 H   0  0  0  0  0  0  0  0  0  0  0  0
   10.2471   -3.2266    1.4802 H   0  0  0  0  0  0  0  0  0  0  0  0
    8.9384   -1.3772    0.9262 H   0  0  0  0  0  0  0  0  0  0  0  0
    7.7040   -3.3727   -0.0606 H   0  0  0  0  0  0  0  0  0  0  0  0
    8.3756   -2.9445   -1.6702 H   0  0  0  0  0  0  0  0  0  0  0  0
    5.6997   -2.0641   -2.9129 H   0  0  0  0  0  0  0  0  0  0  0  0
    5.9505   -3.4507   -1.8171 H   0  0  0  0  0  0  0  0  0  0  0  0
    4.5418   -3.7008    0.2278 H   0  0  0  0  0  0  0  0  0  0  0  0
    0.7205   -1.6898    0.2176 H   0  0  0  0  0  0  0  0  0  0  0  0
    3.6696   -0.7385   -2.7588 H   0  0  0  0  0  0  0  0  0  0  0  0
    1.3943    0.0938   -3.0104 H   0  0  0  0  0  0  0  0  0  0  0  0
    0.1049   -0.5086   -1.9337 H   0  0  0  0  0  0  0  0  0  0  0  0
    3.5577    1.2128   -0.7372 H   0  0  0  0  0  0  0  0  0  0  0  0
    3.1141    1.7070   -2.4217 H   0  0  0  0  0  0  0  0  0  0  0  0
    2.5252    3.9519   -1.6512 H   0  0  0  0  0  0  0  0  0  0  0  0
    4.7008    4.1576   -2.3640 H   0  0  0  0  0  0  0  0  0  0  0  0
    5.6486    3.8132    0.9484 H   0  0  0  0  0  0  0  0  0  0  0  0
    5.0771    1.3309    1.1319 H   0  0  0  0  0  0  0  0  0  0  0  0
    6.4082    1.8380    2.2291 H   0  0  0  0  0  0  0  0  0  0  0  0
    6.7964    0.9610    0.7102 H   0  0  0  0  0  0  0  0  0  0  0  0
    8.1992    3.3928   -0.4912 H   0  0  0  0  0  0  0  0  0  0  0  0
   10.2182    4.7474    1.1233 H   0  0  0  0  0  0  0  0  0  0  0  0
   11.4800    3.6311    3.0690 H   0  0  0  0  0  0  0  0  0  0  0  0
   10.2256    4.8397    3.5360 H   0  0  0  0  0  0  0  0  0  0  0  0
    9.8771    3.0763    3.6973 H   0  0  0  0  0  0  0  0  0  0  0  0
   10.8430    2.8431   -0.0204 H   0  0  0  0  0  0  0  0  0  0  0  0
   12.3476    0.9669    0.9620 H   0  0  0  0  0  0  0  0  0  0  0  0
   12.3555   -1.5104    1.5927 H   0  0  0  0  0  0  0  0  0  0  0  0
   12.2235   -0.2946    2.9028 H   0  0  0  0  0  0  0  0  0  0  0  0
   10.7617   -1.1992    2.4019 H   0  0  0  0  0  0  0  0  0  0  0  0
   11.8462    0.1995   -1.0927 H   0  0  0  0  0  0  0  0  0  0  0  0
    3.2086    5.2793    1.8467 H   0  0  0  0  0  0  0  0  0  0  0  0
    1.6997    5.7814   -0.7271 H   0  0  0  0  0  0  0  0  0  0  0  0
    4.2033    7.3832    0.1065 H   0  0  0  0  0  0  0  0  0  0  0  0
    4.0733    6.2694   -1.3095 H   0  0  0  0  0  0  0  0  0  0  0  0
    3.0810    7.7734   -1.2694 H   0  0  0  0  0  0  0  0  0  0  0  0
    0.5628    9.0064    0.6803 H   0  0  0  0  0  0  0  0  0  0  0  0
   -0.4165    6.4611   -0.6813 H   0  0  0  0  0  0  0  0  0  0  0  0
   -0.6240    9.3803   -1.6893 H   0  0  0  0  0  0  0  0  0  0  0  0
   -1.2338    7.9049   -2.5326 H   0  0  0  0  0  0  0  0  0  0  0  0
    0.5294    8.1286   -2.3145 H   0  0  0  0  0  0  0  0  0  0  0  0
   -3.9486    7.9419   -0.0390 H   0  0  0  0  0  0  0  0  0  0  0  0
   -2.3463    5.9992   -1.7618 H   0  0  0  0  0  0  0  0  0  0  0  0
   -3.8298    7.5148   -3.0037 H   0  0  0  0  0  0  0  0  0  0  0  0
   -4.3043    5.7917   -3.1549 H   0  0  0  0  0  0  0  0  0  0  0  0
   -5.2513    6.9060   -2.1081 H   0  0  0  0  0  0  0  0  0  0  0  0
   -4.7211    4.4698    1.2926 H   0  0  0  0  0  0  0  0  0  0  0  0
   -5.8889    6.9342    0.0476 H   0  0  0  0  0  0  0  0  0  0  0  0
   -7.6899    6.6296    1.6621 H   0  0  0  0  0  0  0  0  0  0  0  0
   -6.0757    6.5735    2.4667 H   0  0  0  0  0  0  0  0  0  0  0  0
   -7.0005    5.0530    2.1915 H   0  0  0  0  0  0  0  0  0  0  0  0
   -6.3663    3.3368   -1.3645 H   0  0  0  0  0  0  0  0  0  0  0  0
   -8.2055    2.0441   -0.7974 H   0  0  0  0  0  0  0  0  0  0  0  0
   -9.5872    4.1401   -1.2921 H   0  0  0  0  0  0  0  0  0  0  0  0
  -10.3253    3.0239   -0.1172 H   0  0  0  0  0  0  0  0  0  0  0  0
   -9.5297    4.5224    0.4821 H   0  0  0  0  0  0  0  0  0  0  0  0
   -8.7490    2.1294    3.1357 H   0  0  0  0  0  0  0  0  0  0  0  0
   -9.8672    0.9294    0.5733 H   0  0  0  0  0  0  0  0  0  0  0  0
  -11.5192    2.2995    1.7968 H   0  0  0  0  0  0  0  0  0  0  0  0
  -11.2343    1.3439    3.2893 H   0  0  0  0  0  0  0  0  0  0  0  0
  -11.9543    0.5511    1.8285 H   0  0  0  0  0  0  0  0  0  0  0  0
   -8.4479   -2.2679    1.8710 H   0  0  0  0  0  0  0  0  0  0  0  0
   -8.6413   -0.5216   -0.5200 H   0  0  0  0  0  0  0  0  0  0  0  0
  -10.8107   -2.6981   -0.0973 H   0  0  0  0  0  0  0  0  0  0  0  0
  -10.5079   -1.7861   -1.6259 H   0  0  0  0  0  0  0  0  0  0  0  0
  -11.0921   -0.9210   -0.1676 H   0  0  0  0  0  0  0  0  0  0  0  0
   -7.5615   -4.0783    0.7508 H   0  0  0  0  0  0  0  0  0  0  0  0
   -9.2706   -4.6446   -1.7214 H   0  0  0  0  0  0  0  0  0  0  0  0
  -10.1975   -6.5566   -0.4673 H   0  0  0  0  0  0  0  0  0  0  0  0
   -9.1554   -6.1536    0.9654 H   0  0  0  0  0  0  0  0  0  0  0  0
  -10.4509   -5.0272    0.4331 H   0  0  0  0  0  0  0  0  0  0  0  0
   -8.2013   -7.7710   -0.4972 H   0  0  0  0  0  0  0  0  0  0  0  0
   -5.7456   -7.8545   -2.1256 H   0  0  0  0  0  0  0  0  0  0  0  0
   -5.3417  -10.0013   -0.9642 H   0  0  0  0  0  0  0  0  0  0  0  0
   -6.6631   -9.6344    0.2240 H   0  0  0  0  0  0  0  0  0  0  0  0
   -7.0473   -9.8801   -1.5230 H   0  0  0  0  0  0  0  0  0  0  0  0
   -4.1189   -5.5713   -0.6400 H   0  0  0  0  0  0  0  0  0  0  0  0
   -2.0451   -6.4056   -1.2354 H   0  0  0  0  0  0  0  0  0  0  0  0
   -3.2010   -8.1147   -2.6558 H   0  0  0  0  0  0  0  0  0  0  0  0
   -3.1749   -9.2486   -1.2393 H   0  0  0  0  0  0  0  0  0  0  0  0
   -1.6287   -8.6680   -1.9501 H   0  0  0  0  0  0  0  0  0  0  0  0
   -0.8081   -6.7534    2.1024 H   0  0  0  0  0  0  0  0  0  0  0  0
    0.1544   -7.1336   -0.7579 H   0  0  0  0  0  0  0  0  0  0  0  0
    2.7405   -6.9483   -0.9602 H   0  0  0  0  0  0  0  0  0  0  0  0
    3.6335   -7.6011    0.4586 H   0  0  0  0  0  0  0  0  0  0  0  0
   -0.4857   -4.7813   -0.6109 H   0  0  0  0  0  0  0  0  0  0  0  0
    1.2823   -4.9101   -0.6573 H   0  0  0  0  0  0  0  0  0  0  0  0
    2.3534   -3.0571    2.4413 H   0  0  0  0  0  0  0  0  0  0  0  0
    2.7847   -4.5778    1.6119 H   0  0  0  0  0  0  0  0  0  0  0  0
  1  2  1  0
  2  3  2  0
  2  4  1  0
  4  5  1  0
  5  6  1  0
  6  7  1  0
  7  8  1  0
  8  9  1  0
  9 10  1  0
 10 11  2  0
 11 12  1  0
 12 13  2  0
 13 14  1  0
 13 15  1  0
 15 16  1  0
 16 17  1  0
 17 18  1  0
 18 19  1  0
 19 20  1  0
 20 21  2  0
 20 22  1  0
 22 23  1  0
 22 24  1  0
 24 25  1  0
 25 26  2  0
 25 27  1  0
 27 28  1  0
 27 29  1  0
 29 30  1  0
 30 31  2  0
 30 32  1  0
 32 33  1  0
 32 34  1  0
 34 35  1  0
 35 36  2  0
 18 37  1  0
 37 38  2  0
 37 39  1  0
 39 40  1  0
 40 41  1  0
 40 42  1  0
 42 43  2  0
 42 44  1  0
 44 45  1  0
 45 46  1  0
 45 47  1  0
 47 48  2  0
 47 49  1  0
 49 50  1  0
 50 51  1  0
 50 52  1  0
 52 53  2  0
 52 54  1  0
 54 55  1  0
 55 56  1  0
 55 57  1  0
 57 58  2  0
 57 59  1  0
 59 60  1  0
 60 61  1  0
 60 62  1  0
 62 63  2  0
 62 64  1  0
 64 65  1  0
 65 66  1  0
 65 67  1  0
 67 68  2  0
 67 69  1  0
 69 70  1  0
 70 71  1  0
 70 72  1  0
 72 73  2  0
 72 74  1  0
 74 75  1  0
 75 76  1  0
 75 77  1  0
 77 78  2  0
 77 79  1  0
 79 80  1  0
 80 81  1  0
 80 82  1  0
 82 83  2  0
 82 84  1  0
 84 85  1  0
 85 86  1  0
 85 87  1  0
 87 88  2  0
 87 89  1  0
 89 90  1  0
 90 91  1  0
 91 92  1  0
 91 93  2  0
 90 94  1  0
 94 95  1  0
 95 96  1  0
 35  5  1  0
 14  9  2  0
 96 11  1  0
  1 97  1  0
  1 98  1  0
  1 99  1  0
  4100  1  0
  5101  1  1
  6102  1  0
  6103  1  0
  8104  1  0
  8105  1  0
 10106  1  0
 12107  1  0
 14108  1  0
 15109  1  0
 15110  1  0
 17111  1  0
 17112  1  0
 18113  1  6
 19114  1  0
 22115  1  1
 23116  1  0
 23117  1  0
 23118  1  0
 24119  1  0
 27120  1  6
 28121  1  0
 28122  1  0
 28123  1  0
 29124  1  0
 32125  1  6
 33126  1  0
 33127  1  0
 33128  1  0
 34129  1  0
 39130  1  0
 40131  1  6
 41132  1  0
 41133  1  0
 41134  1  0
 44135  1  0
 45136  1  6
 46137  1  0
 46138  1  0
 46139  1  0
 49140  1  0
 50141  1  6
 51142  1  0
 51143  1  0
 51144  1  0
 54145  1  0
 55146  1  6
 56147  1  0
 56148  1  0
 56149  1  0
 59150  1  0
 60151  1  6
 61152  1  0
 61153  1  0
 61154  1  0
 64155  1  0
 65156  1  6
 66157  1  0
 66158  1  0
 66159  1  0
 69160  1  0
 70161  1  6
 71162  1  0
 71163  1  0
 71164  1  0
 74165  1  0
 75166  1  6
 76167  1  0
 76168  1  0
 76169  1  0
 79170  1  0
 80171  1  6
 81172  1  0
 81173  1  0
 81174  1  0
 84175  1  0
 85176  1  6
 86177  1  0
 86178  1  0
 86179  1  0
 89180  1  0
 90181  1  6
 92182  1  0
 92183  1  0
 94184  1  0
 94185  1  0
 96186  1  0
 96187  1  0
M  END
