
     RDKit          3D

137139  0  0  0  0  0  0  0  0999 V2000
   -7.8794    7.3854    0.4274 C   0  0  0  0  0  0  0  0  0  0  0  0
   -7.2901    6.0171    0.5337 C   0  0  0  0  0  0  0  0  0  0  0  0
   -8.0259    5.0054    0.3373 O   0  0  0  0  0  0  0  0  0  0  0  0
   -5.8926    5.8624    0.8408 N   0  0  0  0  0  0  0  0  0  0  0  0
   -5.2008    4.5664    0.8095 C   0  0  2  0  0  0  0  0  0  0  0  0
   -3.6863    4.7204    1.0706 C   0  0  0  0  0  0  0  0  0  0  0  0
   -2.9012    6.0158    0.0367 S   0  0  0  0  0  0  0  0  0  0  0  0
   -2.2150    4.9478   -1.2801 C   0  0  0  0  0  0  0  0  0  0  0  0
   -1.1332    4.0371   -0.7750 C   0  0  0  0  0  0  0  0  0  0  0  0
   -0.0123    4.5756   -0.1256 C   0  0  0  0  0  0  0  0  0  0  0  0
    1.0502    3.7426    0.2705 C   0  0  0  0  0  0  0  0  0  0  0  0
    0.9799    2.3606    0.0042 C   0  0  0  0  0  0  0  0  0  0  0  0
   -0.1531    1.8120   -0.6266 C   0  0  0  0  0  0  0  0  0  0  0  0
   -1.2028    2.6572   -1.0098 C   0  0  0  0  0  0  0  0  0  0  0  0
   -0.2511    0.3316   -0.8547 C   0  0  0  0  0  0  0  0  0  0  0  0
   -0.4403   -0.5194    0.7700 S   0  0  0  0  0  0  0  0  0  0  0  0
   -1.1406   -2.0996    0.1540 C   0  0  0  0  0  0  0  0  0  0  0  0
   -0.1100   -3.2372    0.2767 C   0  0  1  0  0  0  0  0  0  0  0  0
   -0.7339   -4.5621    0.1582 N   0  0  0  0  0  0  0  0  0  0  0  0
   -1.6434   -4.9580   -0.8869 C   0  0  0  0  0  0  0  0  0  0  0  0
   -1.6775   -4.3202   -1.9725 O   0  0  0  0  0  0  0  0  0  0  0  0
   -2.5187   -6.1821   -0.7372 C   0  0  1  0  0  0  0  0  0  0  0  0
   -1.7282   -7.4511   -1.0754 C   0  0  0  0  0  0  0  0  0  0  0  0
   -3.0443   -6.2681    0.6337 N   0  0  0  0  0  0  0  0  0  0  0  0
   -4.2928   -5.7082    1.0825 C   0  0  0  0  0  0  0  0  0  0  0  0
   -4.5638   -5.7691    2.3242 O   0  0  0  0  0  0  0  0  0  0  0  0
   -5.3106   -5.1197    0.1391 C   0  0  1  0  0  0  0  0  0  0  0  0
   -6.1542   -6.2328   -0.4801 C   0  0  0  0  0  0  0  0  0  0  0  0
   -6.1856   -4.1845    0.8429 N   0  0  0  0  0  0  0  0  0  0  0  0
   -5.8721   -2.7892    0.9217 C   0  0  0  0  0  0  0  0  0  0  0  0
   -5.3113   -2.3487    1.9635 O   0  0  0  0  0  0  0  0  0  0  0  0
   -6.2749   -1.8178   -0.1606 C   0  0  1  0  0  0  0  0  0  0  0  0
   -7.0014   -2.4918   -1.3307 C   0  0  0  0  0  0  0  0  0  0  0  0
   -7.1390   -0.7856    0.4136 N   0  0  0  0  0  0  0  0  0  0  0  0
   -7.0956    0.5639   -0.0657 C   0  0  0  0  0  0  0  0  0  0  0  0
   -7.9366    0.9329   -0.9257 O   0  0  0  0  0  0  0  0  0  0  0  0
   -6.1625    1.5895    0.5276 C   0  0  1  0  0  0  0  0  0  0  0  0
   -5.0519    0.9724    1.3865 C   0  0  0  0  0  0  0  0  0  0  0  0
   -5.5733    2.3997   -0.5439 N   0  0  0  0  0  0  0  0  0  0  0  0
   -5.4421    3.8332   -0.4936 C   0  0  0  0  0  0  0  0  0  0  0  0
   -5.4726    4.4882   -1.5684 O   0  0  0  0  0  0  0  0  0  0  0  0
    1.0305   -3.0789   -0.6987 C   0  0  0  0  0  0  0  0  0  0  0  0
    0.7948   -2.9217   -1.9273 O   0  0  0  0  0  0  0  0  0  0  0  0
    2.3813   -3.0065   -0.2416 N   0  0  0  0  0  0  0  0  0  0  0  0
    2.9265   -3.9167    0.7764 C   0  0  2  0  0  0  0  0  0  0  0  0
    3.2352   -3.1496    2.0646 C   0  0  0  0  0  0  0  0  0  0  0  0
    4.1762   -4.6038    0.2855 C   0  0  0  0  0  0  0  0  0  0  0  0
    4.5052   -5.7075    0.7958 O   0  0  0  0  0  0  0  0  0  0  0  0
    4.9668   -4.0452   -0.7811 N   0  0  0  0  0  0  0  0  0  0  0  0
    6.4241   -3.8692   -0.7093 C   0  0  2  0  0  0  0  0  0  0  0  0
    7.1490   -5.2177   -0.7416 C   0  0  0  0  0  0  0  0  0  0  0  0
    6.8112   -3.0175    0.4837 C   0  0  0  0  0  0  0  0  0  0  0  0
    7.2490   -3.5747    1.5265 O   0  0  0  0  0  0  0  0  0  0  0  0
    6.7292   -1.5769    0.4541 N   0  0  0  0  0  0  0  0  0  0  0  0
    5.9609   -0.8139   -0.5356 C   0  0  2  0  0  0  0  0  0  0  0  0
    6.8864   -0.2387   -1.6159 C   0  0  0  0  0  0  0  0  0  0  0  0
    5.1176    0.2246    0.1678 C   0  0  0  0  0  0  0  0  0  0  0  0
    3.9984   -0.1292    0.6337 O   0  0  0  0  0  0  0  0  0  0  0  0
    5.4881    1.6062    0.2829 N   0  0  0  0  0  0  0  0  0  0  0  0
    6.8065    2.0696    0.7226 C   0  0  2  0  0  0  0  0  0  0  0  0
    6.7632    2.5518    2.1832 C   0  0  0  0  0  0  0  0  0  0  0  0
    7.3230    3.1251   -0.2273 C   0  0  0  0  0  0  0  0  0  0  0  0
    8.5273    3.0616   -0.5978 O   0  0  0  0  0  0  0  0  0  0  0  0
    6.4810    4.1388   -0.8104 N   0  0  0  0  0  0  0  0  0  0  0  0
    5.5294    4.9565   -0.0498 C   0  0  1  0  0  0  0  0  0  0  0  0
    6.1084    6.3385    0.1519 C   0  0  0  0  0  0  0  0  0  0  0  0
    7.4333    6.4910    0.6672 N   0  0  0  0  0  0  0  0  0  0  0  0
    5.4216    7.3691   -0.0921 O   0  0  0  0  0  0  0  0  0  0  0  0
    4.1757    4.9682   -0.7841 C   0  0  0  0  0  0  0  0  0  0  0  0
    2.8841    5.7953    0.2160 S   0  0  0  0  0  0  0  0  0  0  0  0
    2.2056    4.3172    1.0518 C   0  0  0  0  0  0  0  0  0  0  0  0
   -7.8880    7.8586    1.4309 H   0  0  0  0  0  0  0  0  0  0  0  0
   -8.9271    7.3402    0.0430 H   0  0  0  0  0  0  0  0  0  0  0  0
   -7.2703    8.0035   -0.2627 H   0  0  0  0  0  0  0  0  0  0  0  0
   -5.3692    6.7326    1.1034 H   0  0  0  0  0  0  0  0  0  0  0  0
   -5.5991    3.9716    1.6554 H   0  0  0  0  0  0  0  0  0  0  0  0
   -3.1696    3.7463    0.9495 H   0  0  0  0  0  0  0  0  0  0  0  0
   -3.5399    5.0081    2.1339 H   0  0  0  0  0  0  0  0  0  0  0  0
   -3.0141    4.3689   -1.7594 H   0  0  0  0  0  0  0  0  0  0  0  0
   -1.7684    5.6032   -2.0628 H   0  0  0  0  0  0  0  0  0  0  0  0
    0.0263    5.6326    0.0843 H   0  0  0  0  0  0  0  0  0  0  0  0
    1.7945    1.7015    0.3147 H   0  0  0  0  0  0  0  0  0  0  0  0
   -2.0763    2.2311   -1.4817 H   0  0  0  0  0  0  0  0  0  0  0  0
    0.6628   -0.0390   -1.3677 H   0  0  0  0  0  0  0  0  0  0  0  0
   -1.1245    0.1010   -1.5114 H   0  0  0  0  0  0  0  0  0  0  0  0
   -2.0104   -2.3410    0.8055 H   0  0  0  0  0  0  0  0  0  0  0  0
   -1.5179   -2.0151   -0.8795 H   0  0  0  0  0  0  0  0  0  0  0  0
    0.3042   -3.1662    1.3064 H   0  0  0  0  0  0  0  0  0  0  0  0
   -0.5682   -5.2352    0.9459 H   0  0  0  0  0  0  0  0  0  0  0  0
   -3.3479   -6.1225   -1.4685 H   0  0  0  0  0  0  0  0  0  0  0  0
   -2.4058   -8.3284   -1.0148 H   0  0  0  0  0  0  0  0  0  0  0  0
   -0.8937   -7.6089   -0.3623 H   0  0  0  0  0  0  0  0  0  0  0  0
   -1.3291   -7.3949   -2.1075 H   0  0  0  0  0  0  0  0  0  0  0  0
   -2.4252   -6.6839    1.3717 H   0  0  0  0  0  0  0  0  0  0  0  0
   -4.7845   -4.5712   -0.6715 H   0  0  0  0  0  0  0  0  0  0  0  0
   -6.7935   -6.7017    0.2909 H   0  0  0  0  0  0  0  0  0  0  0  0
   -5.5096   -7.0114   -0.9312 H   0  0  0  0  0  0  0  0  0  0  0  0
   -6.8160   -5.8136   -1.2739 H   0  0  0  0  0  0  0  0  0  0  0  0
   -6.8269   -4.5608    1.5828 H   0  0  0  0  0  0  0  0  0  0  0  0
   -5.3492   -1.3534   -0.5653 H   0  0  0  0  0  0  0  0  0  0  0  0
   -7.2894   -1.7311   -2.0854 H   0  0  0  0  0  0  0  0  0  0  0  0
   -7.9260   -3.0113   -0.9818 H   0  0  0  0  0  0  0  0  0  0  0  0
   -6.3370   -3.2267   -1.8394 H   0  0  0  0  0  0  0  0  0  0  0  0
   -8.0130   -1.0961    0.9026 H   0  0  0  0  0  0  0  0  0  0  0  0
   -6.7909    2.2241    1.1833 H   0  0  0  0  0  0  0  0  0  0  0  0
   -5.4887    0.3983    2.2254 H   0  0  0  0  0  0  0  0  0  0  0  0
   -4.4191    1.7760    1.8251 H   0  0  0  0  0  0  0  0  0  0  0  0
   -4.3877    0.3153    0.7747 H   0  0  0  0  0  0  0  0  0  0  0  0
   -5.1548    1.9041   -1.3621 H   0  0  0  0  0  0  0  0  0  0  0  0
    2.9777   -2.2438   -0.6195 H   0  0  0  0  0  0  0  0  0  0  0  0
    2.1738   -4.7083    1.0054 H   0  0  0  0  0  0  0  0  0  0  0  0
    2.3566   -2.5306    2.3687 H   0  0  0  0  0  0  0  0  0  0  0  0
    4.1027   -2.4895    1.9270 H   0  0  0  0  0  0  0  0  0  0  0  0
    3.4517   -3.8587    2.8842 H   0  0  0  0  0  0  0  0  0  0  0  0
    4.4650   -3.6847   -1.6234 H   0  0  0  0  0  0  0  0  0  0  0  0
    6.7446   -3.3288   -1.6247 H   0  0  0  0  0  0  0  0  0  0  0  0
    8.2398   -5.0456   -0.8200 H   0  0  0  0  0  0  0  0  0  0  0  0
    6.8196   -5.8031   -1.6256 H   0  0  0  0  0  0  0  0  0  0  0  0
    6.9568   -5.8084    0.1782 H   0  0  0  0  0  0  0  0  0  0  0  0
    7.2049   -1.0530    1.2326 H   0  0  0  0  0  0  0  0  0  0  0  0
    5.2559   -1.4696   -1.0627 H   0  0  0  0  0  0  0  0  0  0  0  0
    7.8257    0.1945   -1.1931 H   0  0  0  0  0  0  0  0  0  0  0  0
    7.2017   -1.0478   -2.3022 H   0  0  0  0  0  0  0  0  0  0  0  0
    6.3674    0.5314   -2.2128 H   0  0  0  0  0  0  0  0  0  0  0  0
    4.6946    2.2911    0.3115 H   0  0  0  0  0  0  0  0  0  0  0  0
    7.5216    1.2380    0.7154 H   0  0  0  0  0  0  0  0  0  0  0  0
    6.9514    1.7025    2.8642 H   0  0  0  0  0  0  0  0  0  0  0  0
    7.5354    3.3305    2.3721 H   0  0  0  0  0  0  0  0  0  0  0  0
    5.7597    2.9668    2.4567 H   0  0  0  0  0  0  0  0  0  0  0  0
    6.7433    4.4911   -1.7598 H   0  0  0  0  0  0  0  0  0  0  0  0
    5.3628    4.5187    0.9508 H   0  0  0  0  0  0  0  0  0  0  0  0
    7.7824    7.4356    0.9486 H   0  0  0  0  0  0  0  0  0  0  0  0
    8.0938    5.6810    0.7093 H   0  0  0  0  0  0  0  0  0  0  0  0
    4.2759    5.5222   -1.7479 H   0  0  0  0  0  0  0  0  0  0  0  0
    3.8482    3.9357   -1.0464 H   0  0  0  0  0  0  0  0  0  0  0  0
    3.0014    3.5693    1.2375 H   0  0  0  0  0  0  0  0  0  0  0  0
    1.8302    4.6411    2.0406 H   0  0  0  0  0  0  0  0  0  0  0  0
  1  2  1  0
  2  3  2  0
  2  4  1  0
  4  5  1  0
  5  6  1  0
  6  7  1  0
  7  8  1  0
  8  9  1  0
  9 10  2  0
 10 11  1  0
 11 12  2  0
 12 13  1  0
 13 14  2  0
 13 15  1  0
 15 16  1  0
 16 17  1  0
 17 18  1  0
 18 19  1  0
 19 20  1  0
 20 21  2  0
 20 22  1  0
 22 23  1  0
 22 24  1  0
 24 25  1  0
 25 26  2  0
 25 27  1  0
 27 28  1  0
 27 29  1  0
 29 30  1  0
 30 31  2  0
 30 32  1  0
 32 33  1  0
 32 34  1  0
 34 35  1  0
 35 36  2  0
 35 37  1  0
 37 38  1  0
 37 39  1  0
 39 40  1  0
 40 41  2  0
 18 42  1  0
 42 43  2  0
 42 44  1  0
 44 45  1  0
 45 46  1  0
 45 47  1  0
 47 48  2  0
 47 49  1  0
 49 50  1  0
 50 51  1  0
 50 52  1  0
 52 53  2  0
 52 54  1  0
 54 55  1  0
 55 56  1  0
 55 57  1  0
 57 58  2  0
 57 59  1  0
 59 60  1  0
 60 61  1  0
 60 62  1  0
 62 63  2  0
 62 64  1  0
 64 65  1  0
 65 66  1  0
 66 67  1  0
 66 68  2  0
 65 69  1  0
 69 70  1  0
 70 71  1  0
 40  5  1  0
 14  9  1  0
 71 11  1  0
  1 72  1  0
  1 73  1  0
  1 74  1  0
  4 75  1  0
  5 76  1  1
  6 77  1  0
  6 78  1  0
  8 79  1  0
  8 80  1  0
 10 81  1  0
 12 82  1  0
 14 83  1  0
 15 84  1  0
 15 85  1  0
 17 86  1  0
 17 87  1  0
 18 88  1  1
 19 89  1  0
 22 90  1  6
 23 91  1  0
 23 92  1  0
 23 93  1  0
 24 94  1  0
 27 95  1  6
 28 96  1  0
 28 97  1  0
 28 98  1  0
 29 99  1  0
 32100  1  6
 33101  1  0
 33102  1  0
 33103  1  0
 34104  1  0
 37105  1  1
 38106  1  0
 38107  1  0
 38108  1  0
 39109  1  0
 44110  1  0
 45111  1  1
 46112  1  0
 46113  1  0
 46114  1  0
 49115  1  0
 50116  1  6
 51117  1  0
 51118  1  0
 51119  1  0
 54120  1  0
 55121  1  6
 56122  1  0
 56123  1  0
 56124  1  0
 59125  1  0
 60126  1  1
 61127  1  0
 61128  1  0
 61129  1  0
 64130  1  0
 65131  1  1
 67132  1  0
 67133  1  0
 69134  1  0
 69135  1  0
 71136  1  0
 71137  1  0
M  END
