
     RDKit          3D

147149  0  0  0  0  0  0  0  0999 V2000
   -9.1797    6.6379    0.1789 C   0  0  0  0  0  0  0  0  0  0  0  0
   -8.6746    5.9723    1.4223 C   0  0  0  0  0  0  0  0  0  0  0  0
   -9.0406    6.4329    2.5374 O   0  0  0  0  0  0  0  0  0  0  0  0
   -7.8495    4.7919    1.3997 N   0  0  0  0  0  0  0  0  0  0  0  0
   -6.9704    4.3468    0.3113 C   0  0  2  0  0  0  0  0  0  0  0  0
   -5.8281    5.3608    0.0992 C   0  0  0  0  0  0  0  0  0  0  0  0
   -4.5088    4.7006   -0.9874 S   0  0  0  0  0  0  0  0  0  0  0  0
   -3.6481    3.7251    0.2948 C   0  0  0  0  0  0  0  0  0  0  0  0
   -2.3028    3.3118   -0.2249 C   0  0  0  0  0  0  0  0  0  0  0  0
   -1.2414    4.2309   -0.2309 C   0  0  0  0  0  0  0  0  0  0  0  0
    0.0098    3.8668   -0.7458 C   0  0  0  0  0  0  0  0  0  0  0  0
    0.2109    2.5591   -1.2149 C   0  0  0  0  0  0  0  0  0  0  0  0
   -0.8361    1.6223   -1.2045 C   0  0  0  0  0  0  0  0  0  0  0  0
   -2.1024    2.0209   -0.7359 C   0  0  0  0  0  0  0  0  0  0  0  0
   -0.6263    0.2741   -1.8463 C   0  0  0  0  0  0  0  0  0  0  0  0
   -1.5414   -1.0711   -0.9986 S   0  0  0  0  0  0  0  0  0  0  0  0
   -0.1206   -1.8100   -0.1096 C   0  0  0  0  0  0  0  0  0  0  0  0
   -0.5121   -3.2043    0.4078 C   0  0  1  0  0  0  0  0  0  0  0  0
   -0.7893   -4.1233   -0.7067 N   0  0  0  0  0  0  0  0  0  0  0  0
   -1.4347   -5.3933   -0.5411 C   0  0  0  0  0  0  0  0  0  0  0  0
   -0.9417   -6.4054   -1.1155 O   0  0  0  0  0  0  0  0  0  0  0  0
   -2.7158   -5.5645    0.2457 C   0  0  1  0  0  0  0  0  0  0  0  0
   -2.4409   -5.8249    1.7266 C   0  0  0  0  0  0  0  0  0  0  0  0
   -3.6110   -4.4211    0.0686 N   0  0  0  0  0  0  0  0  0  0  0  0
   -4.4903   -4.3521   -1.0570 C   0  0  0  0  0  0  0  0  0  0  0  0
   -4.0158   -4.4312   -2.2228 O   0  0  0  0  0  0  0  0  0  0  0  0
   -5.9840   -4.2714   -0.8753 C   0  0  1  0  0  0  0  0  0  0  0  0
   -6.4249   -4.5202    0.5746 C   0  0  0  0  0  0  0  0  0  0  0  0
   -6.5167   -3.0011   -1.3800 N   0  0  0  0  0  0  0  0  0  0  0  0
   -6.3719   -1.7573   -0.6790 C   0  0  0  0  0  0  0  0  0  0  0  0
   -5.2382   -1.4116   -0.2470 O   0  0  0  0  0  0  0  0  0  0  0  0
   -7.5699   -0.8414   -0.5066 C   0  0  1  0  0  0  0  0  0  0  0  0
   -8.8205   -1.6641   -0.1574 C   0  0  0  0  0  0  0  0  0  0  0  0
   -7.3366    0.1495    0.5559 N   0  0  0  0  0  0  0  0  0  0  0  0
   -8.1807    1.2925    0.7834 C   0  0  0  0  0  0  0  0  0  0  0  0
   -8.1911    1.8139    1.9305 O   0  0  0  0  0  0  0  0  0  0  0  0
   -9.0413    1.8861   -0.3138 C   0  0  1  0  0  0  0  0  0  0  0  0
  -10.2643    2.6472    0.2158 C   0  0  0  0  0  0  0  0  0  0  0  0
   -8.2523    2.7131   -1.2369 N   0  0  0  0  0  0  0  0  0  0  0  0
   -7.7301    4.0266   -0.9633 C   0  0  0  0  0  0  0  0  0  0  0  0
   -7.7967    4.8928   -1.8777 O   0  0  0  0  0  0  0  0  0  0  0  0
    0.5395   -3.7686    1.3400 C   0  0  0  0  0  0  0  0  0  0  0  0
    0.4315   -3.5318    2.5741 O   0  0  0  0  0  0  0  0  0  0  0  0
    1.6096   -4.6197    0.8961 N   0  0  0  0  0  0  0  0  0  0  0  0
    2.4299   -4.3496   -0.2887 C   0  0  2  0  0  0  0  0  0  0  0  0
    2.8121   -5.6707   -0.9570 C   0  0  0  0  0  0  0  0  0  0  0  0
    3.5876   -3.4452    0.0935 C   0  0  0  0  0  0  0  0  0  0  0  0
    3.3245   -2.3889    0.7264 O   0  0  0  0  0  0  0  0  0  0  0  0
    4.9413   -3.6408   -0.3527 N   0  0  0  0  0  0  0  0  0  0  0  0
    5.7790   -4.8108   -0.0467 C   0  0  2  0  0  0  0  0  0  0  0  0
    5.6481   -5.2244    1.4286 C   0  0  0  0  0  0  0  0  0  0  0  0
    7.2127   -4.5193   -0.4335 C   0  0  0  0  0  0  0  0  0  0  0  0
    7.6090   -4.8605   -1.5788 O   0  0  0  0  0  0  0  0  0  0  0  0
    8.0686   -3.7367    0.4190 N   0  0  0  0  0  0  0  0  0  0  0  0
    9.1584   -2.9108   -0.1223 C   0  0  2  0  0  0  0  0  0  0  0  0
   10.3776   -3.7775   -0.4655 C   0  0  0  0  0  0  0  0  0  0  0  0
    9.5332   -1.8405    0.8845 C   0  0  0  0  0  0  0  0  0  0  0  0
   10.2226   -2.1710    1.8864 O   0  0  0  0  0  0  0  0  0  0  0  0
    9.0598   -0.4815    0.7923 N   0  0  0  0  0  0  0  0  0  0  0  0
    8.2356    0.0479   -0.2986 C   0  0  2  0  0  0  0  0  0  0  0  0
    9.1066    0.4011   -1.5076 C   0  0  0  0  0  0  0  0  0  0  0  0
    7.4782    1.2685    0.1569 C   0  0  0  0  0  0  0  0  0  0  0  0
    6.2186    1.2403    0.1525 O   0  0  0  0  0  0  0  0  0  0  0  0
    8.1695    2.4521    0.5865 N   0  0  0  0  0  0  0  0  0  0  0  0
    7.5322    3.7737    0.5809 C   0  0  2  0  0  0  0  0  0  0  0  0
    8.5686    4.8665    0.8558 C   0  0  0  0  0  0  0  0  0  0  0  0
    6.4387    3.8429    1.6271 C   0  0  0  0  0  0  0  0  0  0  0  0
    6.6787    3.3935    2.7809 O   0  0  0  0  0  0  0  0  0  0  0  0
    5.1443    4.4141    1.3682 N   0  0  0  0  0  0  0  0  0  0  0  0
    4.7186    4.9585    0.0693 C   0  0  1  0  0  0  0  0  0  0  0  0
    4.5010    3.8504   -0.9344 C   0  0  0  0  0  0  0  0  0  0  0  0
    3.8080    2.6527   -0.5810 N   0  0  0  0  0  0  0  0  0  0  0  0
    4.9403    3.9865   -2.1068 O   0  0  0  0  0  0  0  0  0  0  0  0
    3.4643    5.8426    0.2165 C   0  0  0  0  0  0  0  0  0  0  0  0
    1.9884    4.9254    0.8141 S   0  0  0  0  0  0  0  0  0  0  0  0
    1.1324    4.8656   -0.7963 C   0  0  0  0  0  0  0  0  0  0  0  0
   -9.7616    5.9144   -0.4261 H   0  0  0  0  0  0  0  0  0  0  0  0
   -9.8564    7.4797    0.4447 H   0  0  0  0  0  0  0  0  0  0  0  0
   -8.3394    7.0517   -0.4140 H   0  0  0  0  0  0  0  0  0  0  0  0
   -7.7403    4.2947    2.3115 H   0  0  0  0  0  0  0  0  0  0  0  0
   -6.4849    3.4046    0.6358 H   0  0  0  0  0  0  0  0  0  0  0  0
   -5.4006    5.6502    1.0830 H   0  0  0  0  0  0  0  0  0  0  0  0
   -6.2103    6.2891   -0.3661 H   0  0  0  0  0  0  0  0  0  0  0  0
   -3.5119    4.3199    1.2232 H   0  0  0  0  0  0  0  0  0  0  0  0
   -4.2579    2.8290    0.5442 H   0  0  0  0  0  0  0  0  0  0  0  0
   -1.3947    5.2322    0.1497 H   0  0  0  0  0  0  0  0  0  0  0  0
    1.1747    2.2786   -1.6206 H   0  0  0  0  0  0  0  0  0  0  0  0
   -2.9398    1.3353   -0.7893 H   0  0  0  0  0  0  0  0  0  0  0  0
    0.4537    0.0384   -1.9081 H   0  0  0  0  0  0  0  0  0  0  0  0
   -0.9987    0.3295   -2.8887 H   0  0  0  0  0  0  0  0  0  0  0  0
    0.7565   -1.8830   -0.7828 H   0  0  0  0  0  0  0  0  0  0  0  0
    0.1448   -1.1480    0.7405 H   0  0  0  0  0  0  0  0  0  0  0  0
   -1.4369   -3.0616    1.0014 H   0  0  0  0  0  0  0  0  0  0  0  0
   -0.3465   -3.9407   -1.6340 H   0  0  0  0  0  0  0  0  0  0  0  0
   -3.2363   -6.4707   -0.1411 H   0  0  0  0  0  0  0  0  0  0  0  0
   -1.9129   -4.9797    2.2035 H   0  0  0  0  0  0  0  0  0  0  0  0
   -3.3993   -5.9898    2.2619 H   0  0  0  0  0  0  0  0  0  0  0  0
   -1.8200   -6.7400    1.8335 H   0  0  0  0  0  0  0  0  0  0  0  0
   -3.5830   -3.5988    0.7220 H   0  0  0  0  0  0  0  0  0  0  0  0
   -6.4189   -5.0951   -1.4840 H   0  0  0  0  0  0  0  0  0  0  0  0
   -6.0483   -3.7213    1.2513 H   0  0  0  0  0  0  0  0  0  0  0  0
   -7.5345   -4.5429    0.6296 H   0  0  0  0  0  0  0  0  0  0  0  0
   -6.0413   -5.5004    0.9321 H   0  0  0  0  0  0  0  0  0  0  0  0
   -7.1898   -3.0416   -2.1757 H   0  0  0  0  0  0  0  0  0  0  0  0
   -7.7247   -0.3193   -1.4759 H   0  0  0  0  0  0  0  0  0  0  0  0
   -9.6837   -1.0085    0.0744 H   0  0  0  0  0  0  0  0  0  0  0  0
   -9.1119   -2.3120   -1.0110 H   0  0  0  0  0  0  0  0  0  0  0  0
   -8.6279   -2.2973    0.7348 H   0  0  0  0  0  0  0  0  0  0  0  0
   -6.6944   -0.1119    1.3401 H   0  0  0  0  0  0  0  0  0  0  0  0
   -9.4702    1.0495   -0.9046 H   0  0  0  0  0  0  0  0  0  0  0  0
  -10.8653    1.9891    0.8744 H   0  0  0  0  0  0  0  0  0  0  0  0
  -10.9034    2.9666   -0.6336 H   0  0  0  0  0  0  0  0  0  0  0  0
   -9.9747    3.5454    0.7901 H   0  0  0  0  0  0  0  0  0  0  0  0
   -8.2610    2.4191   -2.2383 H   0  0  0  0  0  0  0  0  0  0  0  0
    2.0204   -5.2634    1.6107 H   0  0  0  0  0  0  0  0  0  0  0  0
    1.8428   -3.7956   -1.0379 H   0  0  0  0  0  0  0  0  0  0  0  0
    3.3257   -6.3433   -0.2416 H   0  0  0  0  0  0  0  0  0  0  0  0
    1.8907   -6.1900   -1.2921 H   0  0  0  0  0  0  0  0  0  0  0  0
    3.4455   -5.4884   -1.8511 H   0  0  0  0  0  0  0  0  0  0  0  0
    5.4223   -2.7773   -0.6983 H   0  0  0  0  0  0  0  0  0  0  0  0
    5.4558   -5.6670   -0.6727 H   0  0  0  0  0  0  0  0  0  0  0  0
    6.4110   -5.9902    1.6890 H   0  0  0  0  0  0  0  0  0  0  0  0
    5.7590   -4.3466    2.0994 H   0  0  0  0  0  0  0  0  0  0  0  0
    4.6460   -5.6608    1.6188 H   0  0  0  0  0  0  0  0  0  0  0  0
    7.7662   -3.5732    1.4047 H   0  0  0  0  0  0  0  0  0  0  0  0
    8.8087   -2.4509   -1.0675 H   0  0  0  0  0  0  0  0  0  0  0  0
   10.1403   -4.4683   -1.3009 H   0  0  0  0  0  0  0  0  0  0  0  0
   11.2195   -3.1276   -0.7845 H   0  0  0  0  0  0  0  0  0  0  0  0
   10.6921   -4.3792    0.4138 H   0  0  0  0  0  0  0  0  0  0  0  0
    9.2999    0.1447    1.5949 H   0  0  0  0  0  0  0  0  0  0  0  0
    7.4872   -0.7156   -0.6002 H   0  0  0  0  0  0  0  0  0  0  0  0
    9.8908    1.1371   -1.2289 H   0  0  0  0  0  0  0  0  0  0  0  0
    8.4799    0.8397   -2.3180 H   0  0  0  0  0  0  0  0  0  0  0  0
    9.6089   -0.5015   -1.9149 H   0  0  0  0  0  0  0  0  0  0  0  0
    9.1900    2.3774    0.8125 H   0  0  0  0  0  0  0  0  0  0  0  0
    7.1279    3.9529   -0.4323 H   0  0  0  0  0  0  0  0  0  0  0  0
    9.3453    4.8616    0.0609 H   0  0  0  0  0  0  0  0  0  0  0  0
    8.0798    5.8613    0.8579 H   0  0  0  0  0  0  0  0  0  0  0  0
    9.0596    4.7084    1.8413 H   0  0  0  0  0  0  0  0  0  0  0  0
    4.4927    4.4892    2.1834 H   0  0  0  0  0  0  0  0  0  0  0  0
    5.5208    5.6310   -0.3081 H   0  0  0  0  0  0  0  0  0  0  0  0
    3.4813    2.4831    0.3958 H   0  0  0  0  0  0  0  0  0  0  0  0
    3.6876    1.8904   -1.2863 H   0  0  0  0  0  0  0  0  0  0  0  0
    3.6804    6.6552    0.9467 H   0  0  0  0  0  0  0  0  0  0  0  0
    3.2525    6.3501   -0.7510 H   0  0  0  0  0  0  0  0  0  0  0  0
    0.7315    5.8739   -1.0325 H   0  0  0  0  0  0  0  0  0  0  0  0
    1.8420    4.5866   -1.6034 H   0  0  0  0  0  0  0  0  0  0  0  0
  1  2  1  0
  2  3  2  0
  2  4  1  0
  4  5  1  0
  5  6  1  0
  6  7  1  0
  7  8  1  0
  8  9  1  0
  9 10  2  0
 10 11  1  0
 11 12  2  0
 12 13  1  0
 13 14  2  0
 13 15  1  0
 15 16  1  0
 16 17  1  0
 17 18  1  0
 18 19  1  0
 19 20  1  0
 20 21  2  0
 20 22  1  0
 22 23  1  0
 22 24  1  0
 24 25  1  0
 25 26  2  0
 25 27  1  0
 27 28  1  0
 27 29  1  0
 29 30  1  0
 30 31  2  0
 30 32  1  0
 32 33  1  0
 32 34  1  0
 34 35  1  0
 35 36  2  0
 35 37  1  0
 37 38  1  0
 37 39  1  0
 39 40  1  0
 40 41  2  0
 18 42  1  0
 42 43  2  0
 42 44  1  0
 44 45  1  0
 45 46  1  0
 45 47  1  0
 47 48  2  0
 47 49  1  0
 49 50  1  0
 50 51  1  0
 50 52  1  0
 52 53  2  0
 52 54  1  0
 54 55  1  0
 55 56  1  0
 55 57  1  0
 57 58  2  0
 57 59  1  0
 59 60  1  0
 60 61  1  0
 60 62  1  0
 62 63  2  0
 62 64  1  0
 64 65  1  0
 65 66  1  0
 65 67  1  0
 67 68  2  0
 67 69  1  0
 69 70  1  0
 70 71  1  0
 71 72  1  0
 71 73  2  0
 70 74  1  0
 74 75  1  0
 75 76  1  0
 40  5  1  0
 14  9  1  0
 76 11  1  0
  1 77  1  0
  1 78  1  0
  1 79  1  0
  4 80  1  0
  5 81  1  1
  6 82  1  0
  6 83  1  0
  8 84  1  0
  8 85  1  0
 10 86  1  0
 12 87  1  0
 14 88  1  0
 15 89  1  0
 15 90  1  0
 17 91  1  0
 17 92  1  0
 18 93  1  1
 19 94  1  0
 22 95  1  6
 23 96  1  0
 23 97  1  0
 23 98  1  0
 24 99  1  0
 27100  1  6
 28101  1  0
 28102  1  0
 28103  1  0
 29104  1  0
 32105  1  6
 33106  1  0
 33107  1  0
 33108  1  0
 34109  1  0
 37110  1  6
 38111  1  0
 38112  1  0
 38113  1  0
 39114  1  0
 44115  1  0
 45116  1  6
 46117  1  0
 46118  1  0
 46119  1  0
 49120  1  0
 50121  1  6
 51122  1  0
 51123  1  0
 51124  1  0
 54125  1  0
 55126  1  6
 56127  1  0
 56128  1  0
 56129  1  0
 59130  1  0
 60131  1  6
 61132  1  0
 61133  1  0
 61134  1  0
 64135  1  0
 65136  1  6
 66137  1  0
 66138  1  0
 66139  1  0
 69140  1  0
 70141  1  6
 72142  1  0
 72143  1  0
 74144  1  0
 74145  1  0
 76146  1  0
 76147  1  0
M  END
