
     RDKit          3D

167169  0  0  0  0  0  0  0  0999 V2000
    8.4455   -6.4010   -1.2342 C   0  0  0  0  0  0  0  0  0  0  0  0
    7.8413   -5.2153   -0.5507 C   0  0  0  0  0  0  0  0  0  0  0  0
    7.4418   -5.3487    0.6324 O   0  0  0  0  0  0  0  0  0  0  0  0
    7.7273   -3.9590   -1.2455 N   0  0  0  0  0  0  0  0  0  0  0  0
    6.9497   -2.7878   -0.7679 C   0  0  1  0  0  0  0  0  0  0  0  0
    5.4502   -2.9655   -1.0611 C   0  0  0  0  0  0  0  0  0  0  0  0
    4.7876   -4.4520   -0.1901 S   0  0  0  0  0  0  0  0  0  0  0  0
    3.0326   -4.2275   -0.5794 C   0  0  0  0  0  0  0  0  0  0  0  0
    2.2221   -3.7837    0.6305 C   0  0  0  0  0  0  0  0  0  0  0  0
    1.0494   -4.5147    0.8101 C   0  0  0  0  0  0  0  0  0  0  0  0
   -0.1679   -3.9230    0.3806 C   0  0  0  0  0  0  0  0  0  0  0  0
   -0.1032   -2.5895   -0.1006 C   0  0  0  0  0  0  0  0  0  0  0  0
    1.0539   -1.8140    0.0836 C   0  0  0  0  0  0  0  0  0  0  0  0
    2.0907   -2.4065    0.8166 C   0  0  0  0  0  0  0  0  0  0  0  0
    1.4169   -0.7883   -0.9547 C   0  0  0  0  0  0  0  0  0  0  0  0
    2.6623    0.3776   -0.2660 S   0  0  0  0  0  0  0  0  0  0  0  0
    2.3976    1.7821   -1.4321 C   0  0  0  0  0  0  0  0  0  0  0  0
    2.3672    3.0856   -0.5927 C   0  0  1  0  0  0  0  0  0  0  0  0
    2.7842    4.2244   -1.3851 N   0  0  0  0  0  0  0  0  0  0  0  0
    4.1741    4.5485   -1.5213 C   0  0  0  0  0  0  0  0  0  0  0  0
    4.8707    3.9311   -2.3563 O   0  0  0  0  0  0  0  0  0  0  0  0
    4.8598    5.6041   -0.6310 C   0  0  1  0  0  0  0  0  0  0  0  0
    3.9036    6.2179    0.4066 C   0  0  0  0  0  0  0  0  0  0  0  0
    5.9899    4.9907    0.0589 N   0  0  0  0  0  0  0  0  0  0  0  0
    7.2307    5.6857    0.2474 C   0  0  0  0  0  0  0  0  0  0  0  0
    7.2134    6.9220    0.5337 O   0  0  0  0  0  0  0  0  0  0  0  0
    8.5150    4.9955   -0.0933 C   0  0  1  0  0  0  0  0  0  0  0  0
    9.3711    4.8555    1.1842 C   0  0  0  0  0  0  0  0  0  0  0  0
    8.2685    3.7094   -0.7594 N   0  0  0  0  0  0  0  0  0  0  0  0
    8.3958    2.4076   -0.1793 C   0  0  0  0  0  0  0  0  0  0  0  0
    7.5159    1.9863    0.6371 O   0  0  0  0  0  0  0  0  0  0  0  0
    9.4724    1.4585   -0.6254 C   0  0  1  0  0  0  0  0  0  0  0  0
   10.4765    2.1077   -1.5927 C   0  0  0  0  0  0  0  0  0  0  0  0
   10.1958    0.9498    0.5497 N   0  0  0  0  0  0  0  0  0  0  0  0
   10.3108   -0.4212    0.9995 C   0  0  0  0  0  0  0  0  0  0  0  0
   11.0297   -0.6632    1.9963 O   0  0  0  0  0  0  0  0  0  0  0  0
    9.6545   -1.5975    0.2768 C   0  0  1  0  0  0  0  0  0  0  0  0
   10.6838   -2.6933    0.0340 C   0  0  0  0  0  0  0  0  0  0  0  0
    8.5850   -2.1418    1.1298 N   0  0  0  0  0  0  0  0  0  0  0  0
    7.2602   -2.4872    0.6959 C   0  0  0  0  0  0  0  0  0  0  0  0
    6.3727   -2.6373    1.5867 O   0  0  0  0  0  0  0  0  0  0  0  0
    0.9623    3.2102    0.0176 C   0  0  0  0  0  0  0  0  0  0  0  0
    0.6655    2.5468    1.0456 O   0  0  0  0  0  0  0  0  0  0  0  0
   -0.0668    3.9742   -0.6471 N   0  0  0  0  0  0  0  0  0  0  0  0
   -0.1270    5.4528   -0.6465 C   0  0  2  0  0  0  0  0  0  0  0  0
    0.0053    6.0057    0.7948 C   0  0  0  0  0  0  0  0  0  0  0  0
   -1.4101    5.9243   -1.3129 C   0  0  0  0  0  0  0  0  0  0  0  0
   -1.5235    5.7842   -2.5806 O   0  0  0  0  0  0  0  0  0  0  0  0
   -2.4160    6.6371   -0.5971 N   0  0  0  0  0  0  0  0  0  0  0  0
   -3.5417    6.0610    0.1422 C   0  0  2  0  0  0  0  0  0  0  0  0
   -3.1008    5.4015    1.4574 C   0  0  0  0  0  0  0  0  0  0  0  0
   -4.3033    5.0719   -0.7309 C   0  0  0  0  0  0  0  0  0  0  0  0
   -3.6923    4.0721   -1.2130 O   0  0  0  0  0  0  0  0  0  0  0  0
   -5.6697    5.2707   -1.0505 N   0  0  0  0  0  0  0  0  0  0  0  0
   -6.8001    5.1370   -0.1083 C   0  0  2  0  0  0  0  0  0  0  0  0
   -6.7960    6.2321    0.9813 C   0  0  0  0  0  0  0  0  0  0  0  0
   -6.8048    3.7459    0.5453 C   0  0  0  0  0  0  0  0  0  0  0  0
   -5.7805    3.3807    1.1666 O   0  0  0  0  0  0  0  0  0  0  0  0
   -7.9313    2.8717    0.4452 N   0  0  0  0  0  0  0  0  0  0  0  0
   -9.2036    3.1624   -0.2099 C   0  0  2  0  0  0  0  0  0  0  0  0
   -9.9802    4.2309    0.6028 C   0  0  0  0  0  0  0  0  0  0  0  0
  -10.0972    1.9307   -0.3709 C   0  0  0  0  0  0  0  0  0  0  0  0
  -11.1528    2.0173   -1.0342 O   0  0  0  0  0  0  0  0  0  0  0  0
   -9.6858    0.6336    0.0952 N   0  0  0  0  0  0  0  0  0  0  0  0
   -8.8027   -0.2076   -0.6894 C   0  0  2  0  0  0  0  0  0  0  0  0
   -9.5961   -0.8174   -1.8723 C   0  0  0  0  0  0  0  0  0  0  0  0
   -8.2432   -1.2708    0.2097 C   0  0  0  0  0  0  0  0  0  0  0  0
   -7.2807   -0.9867    0.9790 O   0  0  0  0  0  0  0  0  0  0  0  0
   -8.8992   -2.5270    0.3510 N   0  0  0  0  0  0  0  0  0  0  0  0
   -8.4540   -3.7527   -0.3215 C   0  0  2  0  0  0  0  0  0  0  0  0
   -9.6882   -4.5921   -0.6712 C   0  0  0  0  0  0  0  0  0  0  0  0
   -7.5352   -4.5456    0.5782 C   0  0  0  0  0  0  0  0  0  0  0  0
   -7.3076   -4.1634    1.7608 O   0  0  0  0  0  0  0  0  0  0  0  0
   -6.9953   -5.7998    0.1257 N   0  0  0  0  0  0  0  0  0  0  0  0
   -5.7860   -5.8832   -0.6968 C   0  0  2  0  0  0  0  0  0  0  0  0
   -6.0851   -6.7960   -1.8952 C   0  0  0  0  0  0  0  0  0  0  0  0
   -4.6256   -6.4198    0.1034 C   0  0  0  0  0  0  0  0  0  0  0  0
   -3.7958   -7.2103   -0.4008 O   0  0  0  0  0  0  0  0  0  0  0  0
   -4.5280   -6.0967    1.5032 N   0  0  0  0  0  0  0  0  0  0  0  0
   -3.5603   -6.7159    2.4237 C   0  0  1  0  0  0  0  0  0  0  0  0
   -3.6465   -8.2441    2.3911 C   0  0  0  0  0  0  0  0  0  0  0  0
   -4.8983   -8.9006    2.0911 N   0  0  0  0  0  0  0  0  0  0  0  0
   -2.6254   -8.9593    2.6070 O   0  0  0  0  0  0  0  0  0  0  0  0
   -2.1136   -6.1769    2.2830 C   0  0  0  0  0  0  0  0  0  0  0  0
   -1.3269   -6.4926    0.6299 S   0  0  0  0  0  0  0  0  0  0  0  0
   -1.3751   -4.7599    0.0127 C   0  0  0  0  0  0  0  0  0  0  0  0
    7.6825   -7.2120   -1.3349 H   0  0  0  0  0  0  0  0  0  0  0  0
    9.2944   -6.7722   -0.6145 H   0  0  0  0  0  0  0  0  0  0  0  0
    8.8044   -6.1272   -2.2458 H   0  0  0  0  0  0  0  0  0  0  0  0
    8.2878   -3.8233   -2.1076 H   0  0  0  0  0  0  0  0  0  0  0  0
    7.2624   -1.9063   -1.3735 H   0  0  0  0  0  0  0  0  0  0  0  0
    5.2950   -3.0612   -2.1597 H   0  0  0  0  0  0  0  0  0  0  0  0
    4.9273   -2.0359   -0.7366 H   0  0  0  0  0  0  0  0  0  0  0  0
    2.8661   -3.5411   -1.4457 H   0  0  0  0  0  0  0  0  0  0  0  0
    2.6902   -5.1949   -0.9859 H   0  0  0  0  0  0  0  0  0  0  0  0
    1.1742   -5.6020    0.8727 H   0  0  0  0  0  0  0  0  0  0  0  0
   -0.8383   -2.3035   -0.8261 H   0  0  0  0  0  0  0  0  0  0  0  0
    1.9531   -2.1726    1.8665 H   0  0  0  0  0  0  0  0  0  0  0  0
    0.5045   -0.2757   -1.3112 H   0  0  0  0  0  0  0  0  0  0  0  0
    1.8639   -1.3068   -1.8306 H   0  0  0  0  0  0  0  0  0  0  0  0
    3.2380    1.8229   -2.1581 H   0  0  0  0  0  0  0  0  0  0  0  0
    1.4560    1.7074   -2.0371 H   0  0  0  0  0  0  0  0  0  0  0  0
    3.0909    2.9997    0.2685 H   0  0  0  0  0  0  0  0  0  0  0  0
    2.2002    4.3721   -2.2593 H   0  0  0  0  0  0  0  0  0  0  0  0
    5.1969    6.4479   -1.2947 H   0  0  0  0  0  0  0  0  0  0  0  0
    3.0334    6.5723   -0.1458 H   0  0  0  0  0  0  0  0  0  0  0  0
    3.6105    5.4761    1.1861 H   0  0  0  0  0  0  0  0  0  0  0  0
    4.3520    7.1364    0.8662 H   0  0  0  0  0  0  0  0  0  0  0  0
    5.8539    4.0875    0.5618 H   0  0  0  0  0  0  0  0  0  0  0  0
    9.0866    5.6483   -0.8134 H   0  0  0  0  0  0  0  0  0  0  0  0
   10.3912    4.4920    0.9228 H   0  0  0  0  0  0  0  0  0  0  0  0
    9.4950    5.8370    1.6921 H   0  0  0  0  0  0  0  0  0  0  0  0
    8.9026    4.1352    1.8881 H   0  0  0  0  0  0  0  0  0  0  0  0
    7.8522    3.7350   -1.7174 H   0  0  0  0  0  0  0  0  0  0  0  0
    8.9595    0.6639   -1.1782 H   0  0  0  0  0  0  0  0  0  0  0  0
   11.0313    2.9359   -1.1004 H   0  0  0  0  0  0  0  0  0  0  0  0
   11.1941    1.3377   -1.9536 H   0  0  0  0  0  0  0  0  0  0  0  0
    9.9412    2.4982   -2.4784 H   0  0  0  0  0  0  0  0  0  0  0  0
   10.6941    1.6499    1.1539 H   0  0  0  0  0  0  0  0  0  0  0  0
    9.2697   -1.3179   -0.7172 H   0  0  0  0  0  0  0  0  0  0  0  0
   11.0984   -3.0480    1.0112 H   0  0  0  0  0  0  0  0  0  0  0  0
   10.2303   -3.5613   -0.4823 H   0  0  0  0  0  0  0  0  0  0  0  0
   11.5110   -2.2944   -0.5838 H   0  0  0  0  0  0  0  0  0  0  0  0
    8.7922   -2.2747    2.1452 H   0  0  0  0  0  0  0  0  0  0  0  0
   -0.9270    3.4248   -0.9051 H   0  0  0  0  0  0  0  0  0  0  0  0
    0.7054    5.8399   -1.2558 H   0  0  0  0  0  0  0  0  0  0  0  0
   -0.3190    5.2526    1.5652 H   0  0  0  0  0  0  0  0  0  0  0  0
   -0.5207    7.0053    0.8811 H   0  0  0  0  0  0  0  0  0  0  0  0
    1.0448    6.2717    1.0151 H   0  0  0  0  0  0  0  0  0  0  0  0
   -2.5709    7.6317   -0.9213 H   0  0  0  0  0  0  0  0  0  0  0  0
   -4.2283    6.8891    0.4234 H   0  0  0  0  0  0  0  0  0  0  0  0
   -2.5162    6.1192    2.0665 H   0  0  0  0  0  0  0  0  0  0  0  0
   -3.9780    5.0855    2.0605 H   0  0  0  0  0  0  0  0  0  0  0  0
   -2.4819    4.4916    1.2498 H   0  0  0  0  0  0  0  0  0  0  0  0
   -5.9196    5.1070   -2.0530 H   0  0  0  0  0  0  0  0  0  0  0  0
   -7.7288    5.3121   -0.6962 H   0  0  0  0  0  0  0  0  0  0  0  0
   -6.0267    6.0335    1.7583 H   0  0  0  0  0  0  0  0  0  0  0  0
   -6.6045    7.2344    0.5316 H   0  0  0  0  0  0  0  0  0  0  0  0
   -7.7837    6.2514    1.4967 H   0  0  0  0  0  0  0  0  0  0  0  0
   -7.7621    1.9204    0.8823 H   0  0  0  0  0  0  0  0  0  0  0  0
   -9.0122    3.5386   -1.2463 H   0  0  0  0  0  0  0  0  0  0  0  0
   -9.5770    4.3168    1.6345 H   0  0  0  0  0  0  0  0  0  0  0  0
  -11.0643    4.0261    0.7202 H   0  0  0  0  0  0  0  0  0  0  0  0
   -9.9089    5.2263    0.0985 H   0  0  0  0  0  0  0  0  0  0  0  0
  -10.3926    0.1475    0.6827 H   0  0  0  0  0  0  0  0  0  0  0  0
   -7.9589    0.3841   -1.1281 H   0  0  0  0  0  0  0  0  0  0  0  0
   -8.9738   -1.5536   -2.4234 H   0  0  0  0  0  0  0  0  0  0  0  0
  -10.5064   -1.3240   -1.4935 H   0  0  0  0  0  0  0  0  0  0  0  0
   -9.9043   -0.0119   -2.5727 H   0  0  0  0  0  0  0  0  0  0  0  0
   -9.5993   -2.5992    1.1237 H   0  0  0  0  0  0  0  0  0  0  0  0
   -7.9266   -3.4815   -1.2633 H   0  0  0  0  0  0  0  0  0  0  0  0
   -9.4020   -5.5051   -1.2433 H   0  0  0  0  0  0  0  0  0  0  0  0
  -10.3901   -4.0014   -1.2924 H   0  0  0  0  0  0  0  0  0  0  0  0
  -10.2325   -4.8962    0.2540 H   0  0  0  0  0  0  0  0  0  0  0  0
   -7.2764   -6.6435    0.6861 H   0  0  0  0  0  0  0  0  0  0  0  0
   -5.5115   -4.8774   -1.1135 H   0  0  0  0  0  0  0  0  0  0  0  0
   -6.2606   -7.8390   -1.5446 H   0  0  0  0  0  0  0  0  0  0  0  0
   -6.9770   -6.4238   -2.4341 H   0  0  0  0  0  0  0  0  0  0  0  0
   -5.2282   -6.7971   -2.6005 H   0  0  0  0  0  0  0  0  0  0  0  0
   -4.8403   -5.1067    1.7084 H   0  0  0  0  0  0  0  0  0  0  0  0
   -3.8873   -6.4433    3.4498 H   0  0  0  0  0  0  0  0  0  0  0  0
   -4.9786   -9.9322    2.2099 H   0  0  0  0  0  0  0  0  0  0  0  0
   -5.7600   -8.3365    1.9192 H   0  0  0  0  0  0  0  0  0  0  0  0
   -2.0579   -5.1100    2.6135 H   0  0  0  0  0  0  0  0  0  0  0  0
   -1.4672   -6.7180    3.0210 H   0  0  0  0  0  0  0  0  0  0  0  0
   -1.3981   -4.8369   -1.1069 H   0  0  0  0  0  0  0  0  0  0  0  0
   -2.3192   -4.2550    0.3218 H   0  0  0  0  0  0  0  0  0  0  0  0
  1  2  1  0
  2  3  2  0
  2  4  1  0
  4  5  1  0
  5  6  1  0
  6  7  1  0
  7  8  1  0
  8  9  1  0
  9 10  2  0
 10 11  1  0
 11 12  2  0
 12 13  1  0
 13 14  2  0
 13 15  1  0
 15 16  1  0
 16 17  1  0
 17 18  1  0
 18 19  1  0
 19 20  1  0
 20 21  2  0
 20 22  1  0
 22 23  1  0
 22 24  1  0
 24 25  1  0
 25 26  2  0
 25 27  1  0
 27 28  1  0
 27 29  1  0
 29 30  1  0
 30 31  2  0
 30 32  1  0
 32 33  1  0
 32 34  1  0
 34 35  1  0
 35 36  2  0
 35 37  1  0
 37 38  1  0
 37 39  1  0
 39 40  1  0
 40 41  2  0
 18 42  1  0
 42 43  2  0
 42 44  1  0
 44 45  1  0
 45 46  1  0
 45 47  1  0
 47 48  2  0
 47 49  1  0
 49 50  1  0
 50 51  1  0
 50 52  1  0
 52 53  2  0
 52 54  1  0
 54 55  1  0
 55 56  1  0
 55 57  1  0
 57 58  2  0
 57 59  1  0
 59 60  1  0
 60 61  1  0
 60 62  1  0
 62 63  2  0
 62 64  1  0
 64 65  1  0
 65 66  1  0
 65 67  1  0
 67 68  2  0
 67 69  1  0
 69 70  1  0
 70 71  1  0
 70 72  1  0
 72 73  2  0
 72 74  1  0
 74 75  1  0
 75 76  1  0
 75 77  1  0
 77 78  2  0
 77 79  1  0
 79 80  1  0
 80 81  1  0
 81 82  1  0
 81 83  2  0
 80 84  1  0
 84 85  1  0
 85 86  1  0
 40  5  1  0
 14  9  1  0
 86 11  1  0
  1 87  1  0
  1 88  1  0
  1 89  1  0
  4 90  1  0
  5 91  1  6
  6 92  1  0
  6 93  1  0
  8 94  1  0
  8 95  1  0
 10 96  1  0
 12 97  1  0
 14 98  1  0
 15 99  1  0
 15100  1  0
 17101  1  0
 17102  1  0
 18103  1  1
 19104  1  0
 22105  1  6
 23106  1  0
 23107  1  0
 23108  1  0
 24109  1  0
 27110  1  6
 28111  1  0
 28112  1  0
 28113  1  0
 29114  1  0
 32115  1  6
 33116  1  0
 33117  1  0
 33118  1  0
 34119  1  0
 37120  1  6
 38121  1  0
 38122  1  0
 38123  1  0
 39124  1  0
 44125  1  0
 45126  1  6
 46127  1  0
 46128  1  0
 46129  1  0
 49130  1  0
 50131  1  1
 51132  1  0
 51133  1  0
 51134  1  0
 54135  1  0
 55136  1  6
 56137  1  0
 56138  1  0
 56139  1  0
 59140  1  0
 60141  1  6
 61142  1  0
 61143  1  0
 61144  1  0
 64145  1  0
 65146  1  6
 66147  1  0
 66148  1  0
 66149  1  0
 69150  1  0
 70151  1  6
 71152  1  0
 71153  1  0
 71154  1  0
 74155  1  0
 75156  1  6
 76157  1  0
 76158  1  0
 76159  1  0
 79160  1  0
 80161  1  1
 82162  1  0
 82163  1  0
 84164  1  0
 84165  1  0
 86166  1  0
 86167  1  0
M  END
