
     RDKit          3D

157159  0  0  0  0  0  0  0  0999 V2000
   -8.7907   -6.3468   -1.0731 C   0  0  0  0  0  0  0  0  0  0  0  0
   -8.3106   -5.5348    0.0842 C   0  0  0  0  0  0  0  0  0  0  0  0
   -8.4975   -5.9538    1.2552 O   0  0  0  0  0  0  0  0  0  0  0  0
   -7.6345   -4.2907   -0.1562 N   0  0  0  0  0  0  0  0  0  0  0  0
   -7.0845   -3.4161    0.8875 C   0  0  2  0  0  0  0  0  0  0  0  0
   -5.8896   -4.0907    1.5869 C   0  0  0  0  0  0  0  0  0  0  0  0
   -4.4211   -4.1220    0.4944 S   0  0  0  0  0  0  0  0  0  0  0  0
   -3.6816   -2.5864    1.1546 C   0  0  0  0  0  0  0  0  0  0  0  0
   -2.3937   -2.2799    0.4349 C   0  0  0  0  0  0  0  0  0  0  0  0
   -2.3195   -1.1963   -0.4551 C   0  0  0  0  0  0  0  0  0  0  0  0
   -1.1174   -0.9030   -1.1303 C   0  0  0  0  0  0  0  0  0  0  0  0
   -0.0030   -1.7318   -0.9208 C   0  0  0  0  0  0  0  0  0  0  0  0
   -0.0662   -2.8147   -0.0322 C   0  0  0  0  0  0  0  0  0  0  0  0
   -1.2658   -3.0882    0.6406 C   0  0  0  0  0  0  0  0  0  0  0  0
    1.1160   -3.7369    0.1029 C   0  0  0  0  0  0  0  0  0  0  0  0
    1.2277   -4.7882   -1.3847 S   0  0  0  0  0  0  0  0  0  0  0  0
    2.6032   -5.8622   -0.8251 C   0  0  0  0  0  0  0  0  0  0  0  0
    3.9408   -5.0966   -0.6875 C   0  0  1  0  0  0  0  0  0  0  0  0
    4.3004   -4.8752    0.7592 C   0  0  0  0  0  0  0  0  0  0  0  0
    4.6854   -5.9709    1.5931 N   0  0  0  0  0  0  0  0  0  0  0  0
    4.2935   -3.7088    1.2395 O   0  0  0  0  0  0  0  0  0  0  0  0
    5.0269   -5.8420   -1.3326 N   0  0  0  0  0  0  0  0  0  0  0  0
    6.2140   -5.1718   -1.7728 C   0  0  0  0  0  0  0  0  0  0  0  0
    6.1110   -4.2089   -2.5789 O   0  0  0  0  0  0  0  0  0  0  0  0
    7.5643   -5.5858   -1.2362 C   0  0  1  0  0  0  0  0  0  0  0  0
    7.8829   -7.0363   -1.6070 C   0  0  0  0  0  0  0  0  0  0  0  0
    8.6253   -4.7048   -1.7502 N   0  0  0  0  0  0  0  0  0  0  0  0
    9.0293   -3.4465   -1.1743 C   0  0  0  0  0  0  0  0  0  0  0  0
    9.7637   -2.6880   -1.8640 O   0  0  0  0  0  0  0  0  0  0  0  0
    8.5730   -2.9759    0.1918 C   0  0  1  0  0  0  0  0  0  0  0  0
    9.6472   -2.1049    0.8645 C   0  0  0  0  0  0  0  0  0  0  0  0
    7.2732   -2.2961    0.0702 N   0  0  0  0  0  0  0  0  0  0  0  0
    6.8822   -1.1313    0.8114 C   0  0  0  0  0  0  0  0  0  0  0  0
    6.1267   -1.2712    1.8076 O   0  0  0  0  0  0  0  0  0  0  0  0
    7.3421    0.2517    0.4029 C   0  0  1  0  0  0  0  0  0  0  0  0
    7.4973    0.3705   -1.1166 C   0  0  0  0  0  0  0  0  0  0  0  0
    6.3779    1.2552    0.8648 N   0  0  0  0  0  0  0  0  0  0  0  0
    6.6806    2.1994    1.8972 C   0  0  0  0  0  0  0  0  0  0  0  0
    6.0997    2.0937    3.0136 O   0  0  0  0  0  0  0  0  0  0  0  0
    7.6099    3.3627    1.6601 C   0  0  1  0  0  0  0  0  0  0  0  0
    9.0446    3.0239    2.0786 C   0  0  0  0  0  0  0  0  0  0  0  0
    7.5612    3.7873    0.2565 N   0  0  0  0  0  0  0  0  0  0  0  0
    6.4728    4.5267   -0.3336 C   0  0  0  0  0  0  0  0  0  0  0  0
    6.4799    4.7145   -1.5814 O   0  0  0  0  0  0  0  0  0  0  0  0
    5.3899    5.1697    0.5094 C   0  0  1  0  0  0  0  0  0  0  0  0
    5.8275    6.5756    0.9183 C   0  0  0  0  0  0  0  0  0  0  0  0
    4.1040    5.2342   -0.2052 N   0  0  0  0  0  0  0  0  0  0  0  0
    2.8574    5.3583    0.5015 C   0  0  0  0  0  0  0  0  0  0  0  0
    2.8264    5.2220    1.7529 O   0  0  0  0  0  0  0  0  0  0  0  0
    1.5642    5.5962   -0.2325 C   0  0  1  0  0  0  0  0  0  0  0  0
    1.6308    6.8399   -1.1273 C   0  0  0  0  0  0  0  0  0  0  0  0
    1.2055    4.4185   -1.0195 N   0  0  0  0  0  0  0  0  0  0  0  0
    0.3872    3.3877   -0.4526 C   0  0  0  0  0  0  0  0  0  0  0  0
    0.9451    2.3953    0.0879 O   0  0  0  0  0  0  0  0  0  0  0  0
   -1.1209    3.5154   -0.4769 C   0  0  1  0  0  0  0  0  0  0  0  0
   -1.8409    2.1490   -0.3939 C   0  0  0  0  0  0  0  0  0  0  0  0
   -2.2808    1.5051   -2.0526 S   0  0  0  0  0  0  0  0  0  0  0  0
   -1.0041    0.1956   -2.1632 C   0  0  0  0  0  0  0  0  0  0  0  0
   -1.5688    4.3722    0.6297 N   0  0  0  0  0  0  0  0  0  0  0  0
   -2.2238    5.6340    0.4236 C   0  0  0  0  0  0  0  0  0  0  0  0
   -1.6252    6.6951    0.7620 O   0  0  0  0  0  0  0  0  0  0  0  0
   -3.6519    5.7392   -0.0651 C   0  0  1  0  0  0  0  0  0  0  0  0
   -3.8973    5.0248   -1.3949 C   0  0  0  0  0  0  0  0  0  0  0  0
   -4.5828    5.3310    0.9966 N   0  0  0  0  0  0  0  0  0  0  0  0
   -5.2455    4.0590    1.0588 C   0  0  0  0  0  0  0  0  0  0  0  0
   -4.6699    3.0962    1.6372 O   0  0  0  0  0  0  0  0  0  0  0  0
   -6.6553    3.8662    0.5537 C   0  0  1  0  0  0  0  0  0  0  0  0
   -7.3522    5.1957    0.2412 C   0  0  0  0  0  0  0  0  0  0  0  0
   -6.6464    3.0117   -0.6367 N   0  0  0  0  0  0  0  0  0  0  0  0
   -6.8418    1.5949   -0.5437 C   0  0  0  0  0  0  0  0  0  0  0  0
   -5.8515    0.8364   -0.7276 O   0  0  0  0  0  0  0  0  0  0  0  0
   -8.2005    0.9860   -0.2652 C   0  0  1  0  0  0  0  0  0  0  0  0
   -9.3392    1.9549   -0.6085 C   0  0  0  0  0  0  0  0  0  0  0  0
   -8.3599   -0.2352   -1.0659 N   0  0  0  0  0  0  0  0  0  0  0  0
   -9.1805   -1.3582   -0.6948 C   0  0  0  0  0  0  0  0  0  0  0  0
   -9.3732   -2.2650   -1.5493 O   0  0  0  0  0  0  0  0  0  0  0  0
   -9.8275   -1.4727    0.6699 C   0  0  1  0  0  0  0  0  0  0  0  0
  -10.9350   -2.5356    0.7170 C   0  0  0  0  0  0  0  0  0  0  0  0
   -8.8305   -1.7312    1.7140 N   0  0  0  0  0  0  0  0  0  0  0  0
   -8.1502   -2.9844    1.8677 C   0  0  0  0  0  0  0  0  0  0  0  0
   -8.3971   -3.6863    2.8843 O   0  0  0  0  0  0  0  0  0  0  0  0
   -9.5505   -5.7686   -1.6379 H   0  0  0  0  0  0  0  0  0  0  0  0
   -7.9354   -6.5744   -1.7425 H   0  0  0  0  0  0  0  0  0  0  0  0
   -9.2370   -7.3002   -0.7254 H   0  0  0  0  0  0  0  0  0  0  0  0
   -7.4756   -4.0054   -1.1467 H   0  0  0  0  0  0  0  0  0  0  0  0
   -6.7072   -2.4895    0.4020 H   0  0  0  0  0  0  0  0  0  0  0  0
   -6.1460   -5.1328    1.8653 H   0  0  0  0  0  0  0  0  0  0  0  0
   -5.6561   -3.5676    2.5451 H   0  0  0  0  0  0  0  0  0  0  0  0
   -3.4667   -2.7178    2.2376 H   0  0  0  0  0  0  0  0  0  0  0  0
   -4.4103   -1.7574    1.0478 H   0  0  0  0  0  0  0  0  0  0  0  0
   -3.2055   -0.5951   -0.6299 H   0  0  0  0  0  0  0  0  0  0  0  0
    0.9115   -1.5562   -1.4767 H   0  0  0  0  0  0  0  0  0  0  0  0
   -1.3295   -3.9300    1.3202 H   0  0  0  0  0  0  0  0  0  0  0  0
    1.0239   -4.3764    1.0067 H   0  0  0  0  0  0  0  0  0  0  0  0
    2.0356   -3.1313    0.2059 H   0  0  0  0  0  0  0  0  0  0  0  0
    2.3157   -6.3852    0.1149 H   0  0  0  0  0  0  0  0  0  0  0  0
    2.6957   -6.6528   -1.6078 H   0  0  0  0  0  0  0  0  0  0  0  0
    3.8472   -4.1148   -1.1952 H   0  0  0  0  0  0  0  0  0  0  0  0
    4.7118   -6.9479    1.2158 H   0  0  0  0  0  0  0  0  0  0  0  0
    4.9720   -5.8064    2.5843 H   0  0  0  0  0  0  0  0  0  0  0  0
    5.0479   -6.8884   -1.2397 H   0  0  0  0  0  0  0  0  0  0  0  0
    7.5199   -5.5354   -0.1298 H   0  0  0  0  0  0  0  0  0  0  0  0
    8.9242   -7.2844   -1.3064 H   0  0  0  0  0  0  0  0  0  0  0  0
    7.2031   -7.7350   -1.0701 H   0  0  0  0  0  0  0  0  0  0  0  0
    7.7739   -7.1946   -2.7035 H   0  0  0  0  0  0  0  0  0  0  0  0
    8.9958   -4.9176   -2.7044 H   0  0  0  0  0  0  0  0  0  0  0  0
    8.4440   -3.8522    0.8593 H   0  0  0  0  0  0  0  0  0  0  0  0
    9.8777   -1.2071    0.2554 H   0  0  0  0  0  0  0  0  0  0  0  0
   10.5812   -2.6910    0.9905 H   0  0  0  0  0  0  0  0  0  0  0  0
    9.3132   -1.7838    1.8737 H   0  0  0  0  0  0  0  0  0  0  0  0
    6.4840   -2.8762   -0.2897 H   0  0  0  0  0  0  0  0  0  0  0  0
    8.3253    0.4339    0.8758 H   0  0  0  0  0  0  0  0  0  0  0  0
    8.2426   -0.3669   -1.4904 H   0  0  0  0  0  0  0  0  0  0  0  0
    6.5241    0.1901   -1.6202 H   0  0  0  0  0  0  0  0  0  0  0  0
    7.8641    1.3805   -1.3837 H   0  0  0  0  0  0  0  0  0  0  0  0
    5.3751    1.1342    0.6021 H   0  0  0  0  0  0  0  0  0  0  0  0
    7.3016    4.2124    2.3100 H   0  0  0  0  0  0  0  0  0  0  0  0
    9.0627    2.6693    3.1311 H   0  0  0  0  0  0  0  0  0  0  0  0
    9.6744    3.9393    2.0119 H   0  0  0  0  0  0  0  0  0  0  0  0
    9.4949    2.2512    1.4266 H   0  0  0  0  0  0  0  0  0  0  0  0
    8.3396    3.5023   -0.3798 H   0  0  0  0  0  0  0  0  0  0  0  0
    5.2392    4.5635    1.4264 H   0  0  0  0  0  0  0  0  0  0  0  0
    6.7645    6.5251    1.5139 H   0  0  0  0  0  0  0  0  0  0  0  0
    6.0062    7.2053    0.0191 H   0  0  0  0  0  0  0  0  0  0  0  0
    5.0490    7.0553    1.5447 H   0  0  0  0  0  0  0  0  0  0  0  0
    4.0840    5.2296   -1.2532 H   0  0  0  0  0  0  0  0  0  0  0  0
    0.7742    5.7892    0.5250 H   0  0  0  0  0  0  0  0  0  0  0  0
    2.0320    7.7027   -0.5548 H   0  0  0  0  0  0  0  0  0  0  0  0
    2.2648    6.6677   -2.0193 H   0  0  0  0  0  0  0  0  0  0  0  0
    0.6077    7.0961   -1.4634 H   0  0  0  0  0  0  0  0  0  0  0  0
    1.8158    4.1545   -1.8241 H   0  0  0  0  0  0  0  0  0  0  0  0
   -1.3768    4.0045   -1.4384 H   0  0  0  0  0  0  0  0  0  0  0  0
   -1.2717    1.4112    0.2112 H   0  0  0  0  0  0  0  0  0  0  0  0
   -2.8015    2.2747    0.1467 H   0  0  0  0  0  0  0  0  0  0  0  0
   -0.0066    0.6805   -2.0984 H   0  0  0  0  0  0  0  0  0  0  0  0
   -1.0917   -0.2724   -3.1682 H   0  0  0  0  0  0  0  0  0  0  0  0
   -1.1895    4.1796    1.5848 H   0  0  0  0  0  0  0  0  0  0  0  0
   -3.8530    6.8167   -0.2721 H   0  0  0  0  0  0  0  0  0  0  0  0
   -3.8485    3.9268   -1.2779 H   0  0  0  0  0  0  0  0  0  0  0  0
   -4.8935    5.2949   -1.7984 H   0  0  0  0  0  0  0  0  0  0  0  0
   -3.1479    5.3485   -2.1504 H   0  0  0  0  0  0  0  0  0  0  0  0
   -4.5817    5.9036    1.8741 H   0  0  0  0  0  0  0  0  0  0  0  0
   -7.2416    3.3724    1.3635 H   0  0  0  0  0  0  0  0  0  0  0  0
   -7.3952    5.8292    1.1544 H   0  0  0  0  0  0  0  0  0  0  0  0
   -6.8248    5.7529   -0.5591 H   0  0  0  0  0  0  0  0  0  0  0  0
   -8.3930    5.0144   -0.0994 H   0  0  0  0  0  0  0  0  0  0  0  0
   -6.1937    3.3713   -1.5053 H   0  0  0  0  0  0  0  0  0  0  0  0
   -8.2439    0.7532    0.8185 H   0  0  0  0  0  0  0  0  0  0  0  0
   -9.2523    2.3008   -1.6609 H   0  0  0  0  0  0  0  0  0  0  0  0
  -10.3204    1.4552   -0.4912 H   0  0  0  0  0  0  0  0  0  0  0  0
   -9.3239    2.8302    0.0679 H   0  0  0  0  0  0  0  0  0  0  0  0
   -7.9930   -0.2277   -2.0449 H   0  0  0  0  0  0  0  0  0  0  0  0
  -10.3245   -0.5023    0.8965 H   0  0  0  0  0  0  0  0  0  0  0  0
  -11.3763   -2.5764    1.7340 H   0  0  0  0  0  0  0  0  0  0  0  0
  -10.5300   -3.5417    0.4630 H   0  0  0  0  0  0  0  0  0  0  0  0
  -11.7393   -2.2770   -0.0054 H   0  0  0  0  0  0  0  0  0  0  0  0
   -8.8486   -1.1022    2.5494 H   0  0  0  0  0  0  0  0  0  0  0  0
  1  2  1  0
  2  3  2  0
  2  4  1  0
  4  5  1  0
  5  6  1  0
  6  7  1  0
  7  8  1  0
  8  9  1  0
  9 10  2  0
 10 11  1  0
 11 12  2  0
 12 13  1  0
 13 14  2  0
 13 15  1  0
 15 16  1  0
 16 17  1  0
 17 18  1  0
 18 19  1  0
 19 20  1  0
 19 21  2  0
 18 22  1  0
 22 23  1  0
 23 24  2  0
 23 25  1  0
 25 26  1  0
 25 27  1  0
 27 28  1  0
 28 29  2  0
 28 30  1  0
 30 31  1  0
 30 32  1  0
 32 33  1  0
 33 34  2  0
 33 35  1  0
 35 36  1  0
 35 37  1  0
 37 38  1  0
 38 39  2  0
 38 40  1  0
 40 41  1  0
 40 42  1  0
 42 43  1  0
 43 44  2  0
 43 45  1  0
 45 46  1  0
 45 47  1  0
 47 48  1  0
 48 49  2  0
 48 50  1  0
 50 51  1  0
 50 52  1  0
 52 53  1  0
 53 54  2  0
 53 55  1  0
 55 56  1  0
 56 57  1  0
 57 58  1  0
 55 59  1  0
 59 60  1  0
 60 61  2  0
 60 62  1  0
 62 63  1  0
 62 64  1  0
 64 65  1  0
 65 66  2  0
 65 67  1  0
 67 68  1  0
 67 69  1  0
 69 70  1  0
 70 71  2  0
 70 72  1  0
 72 73  1  0
 72 74  1  0
 74 75  1  0
 75 76  2  0
 75 77  1  0
 77 78  1  0
 77 79  1  0
 79 80  1  0
 80 81  2  0
 80  5  1  0
 14  9  1  0
 58 11  1  0
  1 82  1  0
  1 83  1  0
  1 84  1  0
  4 85  1  0
  5 86  1  6
  6 87  1  0
  6 88  1  0
  8 89  1  0
  8 90  1  0
 10 91  1  0
 12 92  1  0
 14 93  1  0
 15 94  1  0
 15 95  1  0
 17 96  1  0
 17 97  1  0
 18 98  1  6
 20 99  1  0
 20100  1  0
 22101  1  0
 25102  1  1
 26103  1  0
 26104  1  0
 26105  1  0
 27106  1  0
 30107  1  1
 31108  1  0
 31109  1  0
 31110  1  0
 32111  1  0
 35112  1  1
 36113  1  0
 36114  1  0
 36115  1  0
 37116  1  0
 40117  1  1
 41118  1  0
 41119  1  0
 41120  1  0
 42121  1  0
 45122  1  1
 46123  1  0
 46124  1  0
 46125  1  0
 47126  1  0
 50127  1  1
 51128  1  0
 51129  1  0
 51130  1  0
 52131  1  0
 55132  1  6
 56133  1  0
 56134  1  0
 58135  1  0
 58136  1  0
 59137  1  0
 62138  1  6
 63139  1  0
 63140  1  0
 63141  1  0
 64142  1  0
 67143  1  1
 68144  1  0
 68145  1  0
 68146  1  0
 69147  1  0
 72148  1  1
 73149  1  0
 73150  1  0
 73151  1  0
 74152  1  0
 77153  1  1
 78154  1  0
 78155  1  0
 78156  1  0
 79157  1  0
M  END
