
     RDKit          3D

157159  0  0  0  0  0  0  0  0999 V2000
    8.4124    5.7709   -1.7174 C   0  0  0  0  0  0  0  0  0  0  0  0
    7.5953    4.5214   -1.8397 C   0  0  0  0  0  0  0  0  0  0  0  0
    7.7315    3.7949   -2.8580 O   0  0  0  0  0  0  0  0  0  0  0  0
    6.6690    4.1266   -0.8184 N   0  0  0  0  0  0  0  0  0  0  0  0
    6.6395    4.6917    0.5360 C   0  0  1  0  0  0  0  0  0  0  0  0
    5.2035    4.7834    1.0547 C   0  0  0  0  0  0  0  0  0  0  0  0
    4.2432    6.0041    0.0834 S   0  0  0  0  0  0  0  0  0  0  0  0
    3.3744    4.8263   -1.0172 C   0  0  0  0  0  0  0  0  0  0  0  0
    2.4146    3.9542   -0.2519 C   0  0  0  0  0  0  0  0  0  0  0  0
    2.5378    2.5528   -0.2788 C   0  0  0  0  0  0  0  0  0  0  0  0
    1.6656    1.7504    0.4702 C   0  0  0  0  0  0  0  0  0  0  0  0
    0.6316    2.3534    1.2067 C   0  0  0  0  0  0  0  0  0  0  0  0
    0.4691    3.7504    1.2087 C   0  0  0  0  0  0  0  0  0  0  0  0
    1.3844    4.5436    0.4951 C   0  0  0  0  0  0  0  0  0  0  0  0
   -0.5732    4.3948    2.0978 C   0  0  0  0  0  0  0  0  0  0  0  0
   -1.4153    5.8077    1.3024 S   0  0  0  0  0  0  0  0  0  0  0  0
   -2.1203    4.8899   -0.1134 C   0  0  0  0  0  0  0  0  0  0  0  0
   -3.3944    5.5911   -0.6199 C   0  0  1  0  0  0  0  0  0  0  0  0
   -3.0914    6.9576   -1.1869 C   0  0  0  0  0  0  0  0  0  0  0  0
   -3.6248    8.1309   -0.5782 N   0  0  0  0  0  0  0  0  0  0  0  0
   -2.3932    7.0718   -2.2378 O   0  0  0  0  0  0  0  0  0  0  0  0
   -4.0317    4.7688   -1.6562 N   0  0  0  0  0  0  0  0  0  0  0  0
   -5.3904    4.2898   -1.6228 C   0  0  0  0  0  0  0  0  0  0  0  0
   -5.9082    3.8880   -2.7001 O   0  0  0  0  0  0  0  0  0  0  0  0
   -6.2323    4.3220   -0.3647 C   0  0  1  0  0  0  0  0  0  0  0  0
   -6.9909    5.6531   -0.2983 C   0  0  0  0  0  0  0  0  0  0  0  0
   -7.1876    3.2018   -0.3435 N   0  0  0  0  0  0  0  0  0  0  0  0
   -8.0801    2.9721    0.7607 C   0  0  0  0  0  0  0  0  0  0  0  0
   -7.7838    3.4079    1.9103 O   0  0  0  0  0  0  0  0  0  0  0  0
   -9.3752    2.2106    0.5845 C   0  0  1  0  0  0  0  0  0  0  0  0
  -10.5588    3.1016    0.9630 C   0  0  0  0  0  0  0  0  0  0  0  0
   -9.5335    1.7462   -0.7993 N   0  0  0  0  0  0  0  0  0  0  0  0
   -9.0339    0.4917   -1.2995 C   0  0  0  0  0  0  0  0  0  0  0  0
   -9.3135    0.1654   -2.4904 O   0  0  0  0  0  0  0  0  0  0  0  0
   -8.2117   -0.4480   -0.4525 C   0  0  1  0  0  0  0  0  0  0  0  0
   -9.1025   -1.5380    0.1567 C   0  0  0  0  0  0  0  0  0  0  0  0
   -7.0917   -1.0011   -1.2297 N   0  0  0  0  0  0  0  0  0  0  0  0
   -7.2103   -2.0394   -2.2217 C   0  0  0  0  0  0  0  0  0  0  0  0
   -7.0859   -1.7303   -3.4342 O   0  0  0  0  0  0  0  0  0  0  0  0
   -7.3456   -3.4969   -1.8183 C   0  0  1  0  0  0  0  0  0  0  0  0
   -6.8807   -4.4632   -2.9156 C   0  0  0  0  0  0  0  0  0  0  0  0
   -6.6163   -3.7663   -0.5687 N   0  0  0  0  0  0  0  0  0  0  0  0
   -5.1843   -3.6226   -0.4540 C   0  0  0  0  0  0  0  0  0  0  0  0
   -4.5693   -2.8604   -1.2444 O   0  0  0  0  0  0  0  0  0  0  0  0
   -4.3654   -4.4353    0.5240 C   0  0  1  0  0  0  0  0  0  0  0  0
   -5.1973   -5.0956    1.6386 C   0  0  0  0  0  0  0  0  0  0  0  0
   -3.6285   -5.4704   -0.2072 N   0  0  0  0  0  0  0  0  0  0  0  0
   -2.3367   -5.9879    0.1609 C   0  0  0  0  0  0  0  0  0  0  0  0
   -1.7333   -6.7317   -0.6617 O   0  0  0  0  0  0  0  0  0  0  0  0
   -1.6710   -5.6951    1.4886 C   0  0  1  0  0  0  0  0  0  0  0  0
   -1.5185   -6.9955    2.2869 C   0  0  0  0  0  0  0  0  0  0  0  0
   -0.3625   -5.0802    1.2469 N   0  0  0  0  0  0  0  0  0  0  0  0
   -0.2593   -3.7274    0.7981 C   0  0  0  0  0  0  0  0  0  0  0  0
   -0.7460   -2.8109    1.5176 O   0  0  0  0  0  0  0  0  0  0  0  0
    0.3422   -3.3744   -0.5503 C   0  0  1  0  0  0  0  0  0  0  0  0
    1.3721   -2.2366   -0.4520 C   0  0  0  0  0  0  0  0  0  0  0  0
    0.5311   -0.6034   -0.3792 S   0  0  0  0  0  0  0  0  0  0  0  0
    1.8650    0.2533    0.5230 C   0  0  0  0  0  0  0  0  0  0  0  0
    0.8776   -4.5398   -1.2706 N   0  0  0  0  0  0  0  0  0  0  0  0
    1.8953   -5.4486   -0.8166 C   0  0  0  0  0  0  0  0  0  0  0  0
    1.6330   -6.6809   -0.8336 O   0  0  0  0  0  0  0  0  0  0  0  0
    3.2700   -4.9980   -0.3674 C   0  0  1  0  0  0  0  0  0  0  0  0
    3.3688   -5.0515    1.1584 C   0  0  0  0  0  0  0  0  0  0  0  0
    4.2842   -5.8835   -0.9516 N   0  0  0  0  0  0  0  0  0  0  0  0
    5.5057   -5.4317   -1.5526 C   0  0  0  0  0  0  0  0  0  0  0  0
    5.9420   -6.0483   -2.5558 O   0  0  0  0  0  0  0  0  0  0  0  0
    6.3987   -4.4373   -0.8449 C   0  0  1  0  0  0  0  0  0  0  0  0
    7.4059   -5.2343   -0.0012 C   0  0  0  0  0  0  0  0  0  0  0  0
    7.0975   -3.5759   -1.8117 N   0  0  0  0  0  0  0  0  0  0  0  0
    7.8068   -2.3599   -1.4888 C   0  0  0  0  0  0  0  0  0  0  0  0
    8.3564   -1.7181   -2.4264 O   0  0  0  0  0  0  0  0  0  0  0  0
    7.9484   -1.8327   -0.0781 C   0  0  1  0  0  0  0  0  0  0  0  0
    9.4115   -1.9242    0.3819 C   0  0  0  0  0  0  0  0  0  0  0  0
    7.4344   -0.4636    0.0039 N   0  0  0  0  0  0  0  0  0  0  0  0
    8.2482    0.6960   -0.1892 C   0  0  0  0  0  0  0  0  0  0  0  0
    8.5927    1.0238   -1.3578 O   0  0  0  0  0  0  0  0  0  0  0  0
    8.5953    1.5730    0.9873 C   0  0  1  0  0  0  0  0  0  0  0  0
    9.8798    2.3888    0.7299 C   0  0  0  0  0  0  0  0  0  0  0  0
    7.4303    2.4065    1.3149 N   0  0  0  0  0  0  0  0  0  0  0  0
    7.4627    3.8345    1.4541 C   0  0  0  0  0  0  0  0  0  0  0  0
    8.1292    4.3660    2.3905 O   0  0  0  0  0  0  0  0  0  0  0  0
    7.7412    6.6500   -1.6136 H   0  0  0  0  0  0  0  0  0  0  0  0
    9.0424    5.9126   -2.6234 H   0  0  0  0  0  0  0  0  0  0  0  0
    9.0772    5.7082   -0.8323 H   0  0  0  0  0  0  0  0  0  0  0  0
    6.1437    3.2340   -0.9848 H   0  0  0  0  0  0  0  0  0  0  0  0
    7.0644    5.7188    0.5423 H   0  0  0  0  0  0  0  0  0  0  0  0
    5.2199    5.1517    2.1019 H   0  0  0  0  0  0  0  0  0  0  0  0
    4.7162    3.7839    1.0601 H   0  0  0  0  0  0  0  0  0  0  0  0
    4.1061    4.2226   -1.5932 H   0  0  0  0  0  0  0  0  0  0  0  0
    2.7856    5.4230   -1.7495 H   0  0  0  0  0  0  0  0  0  0  0  0
    3.3410    2.0928   -0.8516 H   0  0  0  0  0  0  0  0  0  0  0  0
   -0.0424    1.7410    1.7950 H   0  0  0  0  0  0  0  0  0  0  0  0
    1.3052    5.6252    0.5256 H   0  0  0  0  0  0  0  0  0  0  0  0
   -1.3407    3.6474    2.4119 H   0  0  0  0  0  0  0  0  0  0  0  0
   -0.0723    4.7759    3.0167 H   0  0  0  0  0  0  0  0  0  0  0  0
   -1.3651    4.8207   -0.9332 H   0  0  0  0  0  0  0  0  0  0  0  0
   -2.3866    3.8575    0.1938 H   0  0  0  0  0  0  0  0  0  0  0  0
   -4.0624    5.7203    0.2508 H   0  0  0  0  0  0  0  0  0  0  0  0
   -3.4844    9.0634   -1.0180 H   0  0  0  0  0  0  0  0  0  0  0  0
   -4.1743    8.0733    0.3052 H   0  0  0  0  0  0  0  0  0  0  0  0
   -3.4936    4.6096   -2.5409 H   0  0  0  0  0  0  0  0  0  0  0  0
   -5.5845    4.2137    0.5296 H   0  0  0  0  0  0  0  0  0  0  0  0
   -6.3003    6.5120   -0.4345 H   0  0  0  0  0  0  0  0  0  0  0  0
   -7.4899    5.7659    0.6873 H   0  0  0  0  0  0  0  0  0  0  0  0
   -7.7724    5.6906   -1.0995 H   0  0  0  0  0  0  0  0  0  0  0  0
   -7.1215    2.4559   -1.0797 H   0  0  0  0  0  0  0  0  0  0  0  0
   -9.3897    1.3460    1.2822 H   0  0  0  0  0  0  0  0  0  0  0  0
  -10.5080    3.3910    2.0348 H   0  0  0  0  0  0  0  0  0  0  0  0
  -10.5741    4.0275    0.3439 H   0  0  0  0  0  0  0  0  0  0  0  0
  -11.5138    2.5533    0.7967 H   0  0  0  0  0  0  0  0  0  0  0  0
   -9.9508    2.4039   -1.4970 H   0  0  0  0  0  0  0  0  0  0  0  0
   -7.7555    0.1124    0.3849 H   0  0  0  0  0  0  0  0  0  0  0  0
   -8.4811   -2.2443    0.7499 H   0  0  0  0  0  0  0  0  0  0  0  0
   -9.8389   -1.0807    0.8540 H   0  0  0  0  0  0  0  0  0  0  0  0
   -9.6595   -2.0883   -0.6309 H   0  0  0  0  0  0  0  0  0  0  0  0
   -6.2863   -0.3506   -1.3680 H   0  0  0  0  0  0  0  0  0  0  0  0
   -8.4257   -3.7074   -1.6560 H   0  0  0  0  0  0  0  0  0  0  0  0
   -6.9137   -5.5099   -2.5403 H   0  0  0  0  0  0  0  0  0  0  0  0
   -5.8375   -4.2256   -3.2307 H   0  0  0  0  0  0  0  0  0  0  0  0
   -7.5500   -4.3980   -3.8033 H   0  0  0  0  0  0  0  0  0  0  0  0
   -7.1512   -4.2585    0.1802 H   0  0  0  0  0  0  0  0  0  0  0  0
   -3.6545   -3.7265    0.9927 H   0  0  0  0  0  0  0  0  0  0  0  0
   -4.5331   -5.6384    2.3435 H   0  0  0  0  0  0  0  0  0  0  0  0
   -5.9097   -5.8365    1.2126 H   0  0  0  0  0  0  0  0  0  0  0  0
   -5.7415   -4.3253    2.2251 H   0  0  0  0  0  0  0  0  0  0  0  0
   -4.0577   -5.8462   -1.0866 H   0  0  0  0  0  0  0  0  0  0  0  0
   -2.2702   -5.0123    2.1148 H   0  0  0  0  0  0  0  0  0  0  0  0
   -0.8824   -7.7288    1.7390 H   0  0  0  0  0  0  0  0  0  0  0  0
   -2.5192   -7.4504    2.4653 H   0  0  0  0  0  0  0  0  0  0  0  0
   -1.0494   -6.7879    3.2724 H   0  0  0  0  0  0  0  0  0  0  0  0
    0.4982   -5.6600    1.3382 H   0  0  0  0  0  0  0  0  0  0  0  0
   -0.4980   -2.9874   -1.1619 H   0  0  0  0  0  0  0  0  0  0  0  0
    2.0220   -2.3788    0.4324 H   0  0  0  0  0  0  0  0  0  0  0  0
    2.0152   -2.2212   -1.3592 H   0  0  0  0  0  0  0  0  0  0  0  0
    1.8621   -0.0914    1.5794 H   0  0  0  0  0  0  0  0  0  0  0  0
    2.8415   -0.0203    0.0673 H   0  0  0  0  0  0  0  0  0  0  0  0
    0.2954   -4.8844   -2.0675 H   0  0  0  0  0  0  0  0  0  0  0  0
    3.4553   -3.9595   -0.7077 H   0  0  0  0  0  0  0  0  0  0  0  0
    3.2286   -6.0926    1.5203 H   0  0  0  0  0  0  0  0  0  0  0  0
    2.6095   -4.3948    1.6272 H   0  0  0  0  0  0  0  0  0  0  0  0
    4.3752   -4.7039    1.4853 H   0  0  0  0  0  0  0  0  0  0  0  0
    4.1058   -6.9118   -0.9835 H   0  0  0  0  0  0  0  0  0  0  0  0
    5.7783   -3.7991   -0.1813 H   0  0  0  0  0  0  0  0  0  0  0  0
    8.0854   -4.5693    0.5632 H   0  0  0  0  0  0  0  0  0  0  0  0
    6.8647   -5.8582    0.7426 H   0  0  0  0  0  0  0  0  0  0  0  0
    8.0261   -5.8899   -0.6491 H   0  0  0  0  0  0  0  0  0  0  0  0
    7.1114   -3.8566   -2.8186 H   0  0  0  0  0  0  0  0  0  0  0  0
    7.3548   -2.4368    0.6368 H   0  0  0  0  0  0  0  0  0  0  0  0
    9.5027   -1.5522    1.4260 H   0  0  0  0  0  0  0  0  0  0  0  0
    9.7746   -2.9730    0.3553 H   0  0  0  0  0  0  0  0  0  0  0  0
   10.0844   -1.3236   -0.2708 H   0  0  0  0  0  0  0  0  0  0  0  0
    6.3923   -0.3208   -0.0018 H   0  0  0  0  0  0  0  0  0  0  0  0
    8.7982    0.9033    1.8598 H   0  0  0  0  0  0  0  0  0  0  0  0
   10.1949    2.9233    1.6503 H   0  0  0  0  0  0  0  0  0  0  0  0
    9.7210    3.1275   -0.0848 H   0  0  0  0  0  0  0  0  0  0  0  0
   10.7034    1.7028    0.4323 H   0  0  0  0  0  0  0  0  0  0  0  0
    6.4906    1.9500    1.3399 H   0  0  0  0  0  0  0  0  0  0  0  0
  1  2  1  0
  2  3  2  0
  2  4  1  0
  4  5  1  0
  5  6  1  0
  6  7  1  0
  7  8  1  0
  8  9  1  0
  9 10  2  0
 10 11  1  0
 11 12  2  0
 12 13  1  0
 13 14  2  0
 13 15  1  0
 15 16  1  0
 16 17  1  0
 17 18  1  0
 18 19  1  0
 19 20  1  0
 19 21  2  0
 18 22  1  0
 22 23  1  0
 23 24  2  0
 23 25  1  0
 25 26  1  0
 25 27  1  0
 27 28  1  0
 28 29  2  0
 28 30  1  0
 30 31  1  0
 30 32  1  0
 32 33  1  0
 33 34  2  0
 33 35  1  0
 35 36  1  0
 35 37  1  0
 37 38  1  0
 38 39  2  0
 38 40  1  0
 40 41  1  0
 40 42  1  0
 42 43  1  0
 43 44  2  0
 43 45  1  0
 45 46  1  0
 45 47  1  0
 47 48  1  0
 48 49  2  0
 48 50  1  0
 50 51  1  0
 50 52  1  0
 52 53  1  0
 53 54  2  0
 53 55  1  0
 55 56  1  0
 56 57  1  0
 57 58  1  0
 55 59  1  0
 59 60  1  0
 60 61  2  0
 60 62  1  0
 62 63  1  0
 62 64  1  0
 64 65  1  0
 65 66  2  0
 65 67  1  0
 67 68  1  0
 67 69  1  0
 69 70  1  0
 70 71  2  0
 70 72  1  0
 72 73  1  0
 72 74  1  0
 74 75  1  0
 75 76  2  0
 75 77  1  0
 77 78  1  0
 77 79  1  0
 79 80  1  0
 80 81  2  0
 80  5  1  0
 14  9  1  0
 58 11  1  0
  1 82  1  0
  1 83  1  0
  1 84  1  0
  4 85  1  0
  5 86  1  6
  6 87  1  0
  6 88  1  0
  8 89  1  0
  8 90  1  0
 10 91  1  0
 12 92  1  0
 14 93  1  0
 15 94  1  0
 15 95  1  0
 17 96  1  0
 17 97  1  0
 18 98  1  1
 20 99  1  0
 20100  1  0
 22101  1  0
 25102  1  1
 26103  1  0
 26104  1  0
 26105  1  0
 27106  1  0
 30107  1  1
 31108  1  0
 31109  1  0
 31110  1  0
 32111  1  0
 35112  1  1
 36113  1  0
 36114  1  0
 36115  1  0
 37116  1  0
 40117  1  1
 41118  1  0
 41119  1  0
 41120  1  0
 42121  1  0
 45122  1  1
 46123  1  0
 46124  1  0
 46125  1  0
 47126  1  0
 50127  1  1
 51128  1  0
 51129  1  0
 51130  1  0
 52131  1  0
 55132  1  6
 56133  1  0
 56134  1  0
 58135  1  0
 58136  1  0
 59137  1  0
 62138  1  6
 63139  1  0
 63140  1  0
 63141  1  0
 64142  1  0
 67143  1  1
 68144  1  0
 68145  1  0
 68146  1  0
 69147  1  0
 72148  1  1
 73149  1  0
 73150  1  0
 73151  1  0
 74152  1  0
 77153  1  1
 78154  1  0
 78155  1  0
 78156  1  0
 79157  1  0
M  END
