
     RDKit          3D

167169  0  0  0  0  0  0  0  0999 V2000
   -7.7289    6.9274   -0.2373 C   0  0  0  0  0  0  0  0  0  0  0  0
   -8.3867    5.8525    0.5535 C   0  0  0  0  0  0  0  0  0  0  0  0
   -9.6136    5.9673    0.8488 O   0  0  0  0  0  0  0  0  0  0  0  0
   -7.6610    4.7635    1.0685 N   0  0  0  0  0  0  0  0  0  0  0  0
   -6.8428    3.8780    0.2795 C   0  0  1  0  0  0  0  0  0  0  0  0
   -5.3562    4.1640    0.4573 C   0  0  0  0  0  0  0  0  0  0  0  0
   -4.4467    3.5988   -1.0691 S   0  0  0  0  0  0  0  0  0  0  0  0
   -3.7331    2.0352   -0.3292 C   0  0  0  0  0  0  0  0  0  0  0  0
   -2.8065    2.1840    0.8674 C   0  0  0  0  0  0  0  0  0  0  0  0
   -1.9800    1.0986    1.2415 C   0  0  0  0  0  0  0  0  0  0  0  0
   -0.5952    1.1759    1.1375 C   0  0  0  0  0  0  0  0  0  0  0  0
   -0.0129    2.4340    1.3435 C   0  0  0  0  0  0  0  0  0  0  0  0
   -0.7898    3.5812    1.0804 C   0  0  0  0  0  0  0  0  0  0  0  0
   -2.1851    3.4613    1.0215 C   0  0  0  0  0  0  0  0  0  0  0  0
   -0.2635    4.8427    0.4114 C   0  0  0  0  0  0  0  0  0  0  0  0
    1.0551    4.4124   -0.8087 S   0  0  0  0  0  0  0  0  0  0  0  0
    2.5403    4.9164    0.1694 C   0  0  0  0  0  0  0  0  0  0  0  0
    3.5570    5.6466   -0.7472 C   0  0  1  0  0  0  0  0  0  0  0  0
    2.9380    6.7094   -1.5975 C   0  0  0  0  0  0  0  0  0  0  0  0
    2.0690    7.6798   -1.0017 N   0  0  0  0  0  0  0  0  0  0  0  0
    3.3162    6.8373   -2.7893 O   0  0  0  0  0  0  0  0  0  0  0  0
    4.5097    6.4319    0.0914 N   0  0  0  0  0  0  0  0  0  0  0  0
    5.8896    6.4682   -0.0013 C   0  0  0  0  0  0  0  0  0  0  0  0
    6.4866    7.5712   -0.2108 O   0  0  0  0  0  0  0  0  0  0  0  0
    6.7150    5.2953    0.4578 C   0  0  1  0  0  0  0  0  0  0  0  0
    6.3205    4.9192    1.9018 C   0  0  0  0  0  0  0  0  0  0  0  0
    6.4854    4.1012   -0.3988 N   0  0  0  0  0  0  0  0  0  0  0  0
    7.4445    3.5575   -1.3086 C   0  0  0  0  0  0  0  0  0  0  0  0
    7.0231    3.1601   -2.4575 O   0  0  0  0  0  0  0  0  0  0  0  0
    8.9095    3.3964   -1.0151 C   0  0  1  0  0  0  0  0  0  0  0  0
    9.7225    4.6808   -1.2284 C   0  0  0  0  0  0  0  0  0  0  0  0
    9.1085    2.9157    0.3679 N   0  0  0  0  0  0  0  0  0  0  0  0
    9.7875    1.7133    0.7103 C   0  0  0  0  0  0  0  0  0  0  0  0
   10.5221    1.7343    1.7515 O   0  0  0  0  0  0  0  0  0  0  0  0
    9.4993    0.4118    0.0180 C   0  0  1  0  0  0  0  0  0  0  0  0
   10.7198   -0.5234    0.1047 C   0  0  0  0  0  0  0  0  0  0  0  0
    8.2761   -0.1777    0.6452 N   0  0  0  0  0  0  0  0  0  0  0  0
    7.9937   -1.5328    0.9332 C   0  0  0  0  0  0  0  0  0  0  0  0
    7.8191   -1.8735    2.1530 O   0  0  0  0  0  0  0  0  0  0  0  0
    7.6851   -2.5755   -0.1206 C   0  0  1  0  0  0  0  0  0  0  0  0
    8.4807   -2.4911   -1.4537 C   0  0  0  0  0  0  0  0  0  0  0  0
    7.9063   -3.9085    0.4279 N   0  0  0  0  0  0  0  0  0  0  0  0
    6.9939   -4.5837    1.2917 C   0  0  0  0  0  0  0  0  0  0  0  0
    7.4159   -5.1172    2.3563 O   0  0  0  0  0  0  0  0  0  0  0  0
    5.5397   -4.7801    0.9206 C   0  0  1  0  0  0  0  0  0  0  0  0
    4.6735   -3.5249    1.0356 C   0  0  0  0  0  0  0  0  0  0  0  0
    5.5290   -5.2495   -0.4874 N   0  0  0  0  0  0  0  0  0  0  0  0
    4.7074   -6.2207   -1.0208 C   0  0  0  0  0  0  0  0  0  0  0  0
    5.2716   -7.2194   -1.5948 O   0  0  0  0  0  0  0  0  0  0  0  0
    3.2221   -6.0448   -1.1020 C   0  0  1  0  0  0  0  0  0  0  0  0
    2.5759   -6.9380   -2.1632 C   0  0  0  0  0  0  0  0  0  0  0  0
    2.6043   -6.2932    0.2104 N   0  0  0  0  0  0  0  0  0  0  0  0
    1.4353   -5.7247    0.5816 C   0  0  0  0  0  0  0  0  0  0  0  0
    1.3037   -5.1541    1.7300 O   0  0  0  0  0  0  0  0  0  0  0  0
    0.2688   -6.1385   -0.1820 C   0  0  1  0  0  0  0  0  0  0  0  0
   -0.6895   -6.7386    0.8882 C   0  0  0  0  0  0  0  0  0  0  0  0
   -0.3761   -5.0279   -1.0236 N   0  0  0  0  0  0  0  0  0  0  0  0
   -0.5539   -3.6370   -0.7663 C   0  0  0  0  0  0  0  0  0  0  0  0
   -0.2492   -2.7859   -1.7131 O   0  0  0  0  0  0  0  0  0  0  0  0
   -1.2291   -3.1088    0.4788 C   0  0  1  0  0  0  0  0  0  0  0  0
   -0.3866   -2.0813    1.2642 C   0  0  0  0  0  0  0  0  0  0  0  0
    0.7911   -1.0633    0.2708 S   0  0  0  0  0  0  0  0  0  0  0  0
   -0.1002    0.4779   -0.1421 C   0  0  0  0  0  0  0  0  0  0  0  0
   -2.5510   -2.5259    0.0942 N   0  0  0  0  0  0  0  0  0  0  0  0
   -3.3742   -2.9239   -0.9782 C   0  0  0  0  0  0  0  0  0  0  0  0
   -3.6846   -2.0405   -1.8805 O   0  0  0  0  0  0  0  0  0  0  0  0
   -4.0504   -4.2682   -1.0448 C   0  0  1  0  0  0  0  0  0  0  0  0
   -4.4207   -4.7526    0.3774 C   0  0  0  0  0  0  0  0  0  0  0  0
   -5.3485   -4.1346   -1.6490 N   0  0  0  0  0  0  0  0  0  0  0  0
   -6.2973   -3.2322   -1.1287 C   0  0  0  0  0  0  0  0  0  0  0  0
   -6.6885   -2.2925   -1.8652 O   0  0  0  0  0  0  0  0  0  0  0  0
   -6.9866   -3.4368    0.1740 C   0  0  1  0  0  0  0  0  0  0  0  0
   -6.7760   -2.2957    1.1718 C   0  0  0  0  0  0  0  0  0  0  0  0
   -8.4113   -3.6419   -0.0856 N   0  0  0  0  0  0  0  0  0  0  0  0
   -9.4855   -2.9845    0.4985 C   0  0  0  0  0  0  0  0  0  0  0  0
  -10.1955   -3.5902    1.3957 O   0  0  0  0  0  0  0  0  0  0  0  0
   -9.9881   -1.6996   -0.0708 C   0  0  1  0  0  0  0  0  0  0  0  0
  -11.4288   -1.8773   -0.5502 C   0  0  0  0  0  0  0  0  0  0  0  0
   -9.9101   -0.5649    0.9085 N   0  0  0  0  0  0  0  0  0  0  0  0
   -9.8477    0.8140    0.5191 C   0  0  0  0  0  0  0  0  0  0  0  0
  -10.4181    1.7061    1.2317 O   0  0  0  0  0  0  0  0  0  0  0  0
   -8.9465    1.2676   -0.5982 C   0  0  1  0  0  0  0  0  0  0  0  0
   -9.4682    2.5278   -1.2849 C   0  0  0  0  0  0  0  0  0  0  0  0
   -7.5413    1.4749   -0.1001 N   0  0  0  0  0  0  0  0  0  0  0  0
   -7.0973    2.4963    0.7936 C   0  0  0  0  0  0  0  0  0  0  0  0
   -6.7534    2.1322    1.9603 O   0  0  0  0  0  0  0  0  0  0  0  0
   -7.2023    6.5063   -1.1267 H   0  0  0  0  0  0  0  0  0  0  0  0
   -6.9767    7.4312    0.4131 H   0  0  0  0  0  0  0  0  0  0  0  0
   -8.4714    7.6857   -0.5719 H   0  0  0  0  0  0  0  0  0  0  0  0
   -7.6302    4.6691    2.1070 H   0  0  0  0  0  0  0  0  0  0  0  0
   -7.1015    3.9417   -0.7988 H   0  0  0  0  0  0  0  0  0  0  0  0
   -4.9768    3.7506    1.4573 H   0  0  0  0  0  0  0  0  0  0  0  0
   -5.2522    5.2667    0.5524 H   0  0  0  0  0  0  0  0  0  0  0  0
   -3.1212    1.5903   -1.1617 H   0  0  0  0  0  0  0  0  0  0  0  0
   -4.5655    1.3009   -0.1159 H   0  0  0  0  0  0  0  0  0  0  0  0
   -2.4472    0.1589    1.5156 H   0  0  0  0  0  0  0  0  0  0  0  0
    1.0730    2.5216    1.2259 H   0  0  0  0  0  0  0  0  0  0  0  0
   -2.7550    4.3620    0.8666 H   0  0  0  0  0  0  0  0  0  0  0  0
   -1.0572    5.3031   -0.2221 H   0  0  0  0  0  0  0  0  0  0  0  0
   -0.0073    5.6333    1.1636 H   0  0  0  0  0  0  0  0  0  0  0  0
    2.3200    5.5671    1.0483 H   0  0  0  0  0  0  0  0  0  0  0  0
    3.0269    3.9925    0.5666 H   0  0  0  0  0  0  0  0  0  0  0  0
    4.1371    4.9444   -1.3691 H   0  0  0  0  0  0  0  0  0  0  0  0
    1.6524    7.5074   -0.0644 H   0  0  0  0  0  0  0  0  0  0  0  0
    2.5563    8.6646   -1.0160 H   0  0  0  0  0  0  0  0  0  0  0  0
    4.0999    7.2901    0.5421 H   0  0  0  0  0  0  0  0  0  0  0  0
    7.7664    5.5622    0.4130 H   0  0  0  0  0  0  0  0  0  0  0  0
    5.5462    5.6222    2.2780 H   0  0  0  0  0  0  0  0  0  0  0  0
    7.2179    5.0042    2.5537 H   0  0  0  0  0  0  0  0  0  0  0  0
    5.9000    3.9100    1.9585 H   0  0  0  0  0  0  0  0  0  0  0  0
    5.5817    3.5724   -0.3025 H   0  0  0  0  0  0  0  0  0  0  0  0
    9.3099    2.6349   -1.7111 H   0  0  0  0  0  0  0  0  0  0  0  0
   10.6405    4.4382   -1.8178 H   0  0  0  0  0  0  0  0  0  0  0  0
   10.0508    5.1208   -0.2550 H   0  0  0  0  0  0  0  0  0  0  0  0
    9.1237    5.4399   -1.7862 H   0  0  0  0  0  0  0  0  0  0  0  0
    8.9812    3.5828    1.1522 H   0  0  0  0  0  0  0  0  0  0  0  0
    9.2358    0.5866   -1.0659 H   0  0  0  0  0  0  0  0  0  0  0  0
   11.6093   -0.0431    0.5569 H   0  0  0  0  0  0  0  0  0  0  0  0
   11.0490   -0.8270   -0.9316 H   0  0  0  0  0  0  0  0  0  0  0  0
   10.5373   -1.4220    0.7255 H   0  0  0  0  0  0  0  0  0  0  0  0
    7.7062    0.4652    1.2220 H   0  0  0  0  0  0  0  0  0  0  0  0
    6.6345   -2.4235   -0.3901 H   0  0  0  0  0  0  0  0  0  0  0  0
    7.9346   -3.1513   -2.1914 H   0  0  0  0  0  0  0  0  0  0  0  0
    8.5036   -1.4763   -1.8597 H   0  0  0  0  0  0  0  0  0  0  0  0
    9.5033   -2.9114   -1.3323 H   0  0  0  0  0  0  0  0  0  0  0  0
    8.9178   -4.2504    0.4904 H   0  0  0  0  0  0  0  0  0  0  0  0
    5.1221   -5.5726    1.5405 H   0  0  0  0  0  0  0  0  0  0  0  0
    5.2074   -2.7376    1.5793 H   0  0  0  0  0  0  0  0  0  0  0  0
    4.3783   -3.1675    0.0251 H   0  0  0  0  0  0  0  0  0  0  0  0
    3.7336   -3.7825    1.5730 H   0  0  0  0  0  0  0  0  0  0  0  0
    6.1863   -4.8036   -1.1696 H   0  0  0  0  0  0  0  0  0  0  0  0
    2.9971   -4.9662   -1.3922 H   0  0  0  0  0  0  0  0  0  0  0  0
    2.2554   -7.9159   -1.7236 H   0  0  0  0  0  0  0  0  0  0  0  0
    3.3039   -7.1727   -2.9984 H   0  0  0  0  0  0  0  0  0  0  0  0
    1.7438   -6.4275   -2.6828 H   0  0  0  0  0  0  0  0  0  0  0  0
    2.8972   -7.1072    0.7991 H   0  0  0  0  0  0  0  0  0  0  0  0
    0.5025   -6.9392   -0.8975 H   0  0  0  0  0  0  0  0  0  0  0  0
   -1.5632   -7.5044    0.8381 H   0  0  0  0  0  0  0  0  0  0  0  0
   -1.3604   -6.8726   -0.0437 H   0  0  0  0  0  0  0  0  0  0  0  0
   -1.0013   -6.0285    1.8555 H   0  0  0  0  0  0  0  0  0  0  0  0
   -0.5824   -5.2350   -2.0450 H   0  0  0  0  0  0  0  0  0  0  0  0
   -1.4390   -3.9856    1.2397 H   0  0  0  0  0  0  0  0  0  0  0  0
   -1.0039   -1.4837    1.9758 H   0  0  0  0  0  0  0  0  0  0  0  0
    0.3163   -2.6703    1.9071 H   0  0  0  0  0  0  0  0  0  0  0  0
   -0.9056    0.4077   -0.9444 H   0  0  0  0  0  0  0  0  0  0  0  0
    0.6743    1.1060   -0.6713 H   0  0  0  0  0  0  0  0  0  0  0  0
   -2.9338   -1.7857    0.7162 H   0  0  0  0  0  0  0  0  0  0  0  0
   -3.3964   -5.0263   -1.7003 H   0  0  0  0  0  0  0  0  0  0  0  0
   -4.7457   -4.0298    1.1316 H   0  0  0  0  0  0  0  0  0  0  0  0
   -4.6030   -5.8997    0.4275 H   0  0  0  0  0  0  0  0  0  0  0  0
   -3.6141   -4.6771    1.0736 H   0  0  0  0  0  0  0  0  0  0  0  0
   -5.6401   -4.7471   -2.4297 H   0  0  0  0  0  0  0  0  0  0  0  0
   -6.6864   -4.3417    0.6406 H   0  0  0  0  0  0  0  0  0  0  0  0
   -5.7117   -2.1195    1.5120 H   0  0  0  0  0  0  0  0  0  0  0  0
   -7.0728   -1.3665    0.5949 H   0  0  0  0  0  0  0  0  0  0  0  0
   -7.4483   -2.3251    2.0662 H   0  0  0  0  0  0  0  0  0  0  0  0
   -8.6243   -4.5249   -0.5936 H   0  0  0  0  0  0  0  0  0  0  0  0
   -9.3434   -1.4370   -0.9536 H   0  0  0  0  0  0  0  0  0  0  0  0
  -11.6170   -1.1832   -1.4069 H   0  0  0  0  0  0  0  0  0  0  0  0
  -11.5522   -2.9348   -0.9293 H   0  0  0  0  0  0  0  0  0  0  0  0
  -12.1515   -1.6882    0.2680 H   0  0  0  0  0  0  0  0  0  0  0  0
  -10.1705   -0.7505    1.9078 H   0  0  0  0  0  0  0  0  0  0  0  0
   -8.8548    0.5034   -1.4218 H   0  0  0  0  0  0  0  0  0  0  0  0
   -8.7381    2.8310   -2.0960 H   0  0  0  0  0  0  0  0  0  0  0  0
  -10.4350    2.2683   -1.7651 H   0  0  0  0  0  0  0  0  0  0  0  0
   -9.6047    3.3460   -0.5650 H   0  0  0  0  0  0  0  0  0  0  0  0
   -7.0262    0.5809    0.0504 H   0  0  0  0  0  0  0  0  0  0  0  0
  1  2  1  0
  2  3  2  0
  2  4  1  0
  4  5  1  0
  5  6  1  0
  6  7  1  0
  7  8  1  0
  8  9  1  0
  9 10  2  0
 10 11  1  0
 11 12  2  0
 12 13  1  0
 13 14  2  0
 13 15  1  0
 15 16  1  0
 16 17  1  0
 17 18  1  0
 18 19  1  0
 19 20  1  0
 19 21  2  0
 18 22  1  0
 22 23  1  0
 23 24  2  0
 23 25  1  0
 25 26  1  0
 25 27  1  0
 27 28  1  0
 28 29  2  0
 28 30  1  0
 30 31  1  0
 30 32  1  0
 32 33  1  0
 33 34  2  0
 33 35  1  0
 35 36  1  0
 35 37  1  0
 37 38  1  0
 38 39  2  0
 38 40  1  0
 40 41  1  0
 40 42  1  0
 42 43  1  0
 43 44  2  0
 43 45  1  0
 45 46  1  0
 45 47  1  0
 47 48  1  0
 48 49  2  0
 48 50  1  0
 50 51  1  0
 50 52  1  0
 52 53  1  0
 53 54  2  0
 53 55  1  0
 55 56  1  0
 55 57  1  0
 57 58  1  0
 58 59  2  0
 58 60  1  0
 60 61  1  0
 61 62  1  0
 62 63  1  0
 60 64  1  0
 64 65  1  0
 65 66  2  0
 65 67  1  0
 67 68  1  0
 67 69  1  0
 69 70  1  0
 70 71  2  0
 70 72  1  0
 72 73  1  0
 72 74  1  0
 74 75  1  0
 75 76  2  0
 75 77  1  0
 77 78  1  0
 77 79  1  0
 79 80  1  0
 80 81  2  0
 80 82  1  0
 82 83  1  0
 82 84  1  0
 84 85  1  0
 85 86  2  0
 85  5  1  0
 14  9  1  0
 63 11  1  0
  1 87  1  0
  1 88  1  0
  1 89  1  0
  4 90  1  0
  5 91  1  6
  6 92  1  0
  6 93  1  0
  8 94  1  0
  8 95  1  0
 10 96  1  0
 12 97  1  0
 14 98  1  0
 15 99  1  0
 15100  1  0
 17101  1  0
 17102  1  0
 18103  1  6
 20104  1  0
 20105  1  0
 22106  1  0
 25107  1  1
 26108  1  0
 26109  1  0
 26110  1  0
 27111  1  0
 30112  1  6
 31113  1  0
 31114  1  0
 31115  1  0
 32116  1  0
 35117  1  6
 36118  1  0
 36119  1  0
 36120  1  0
 37121  1  0
 40122  1  6
 41123  1  0
 41124  1  0
 41125  1  0
 42126  1  0
 45127  1  1
 46128  1  0
 46129  1  0
 46130  1  0
 47131  1  0
 50132  1  6
 51133  1  0
 51134  1  0
 51135  1  0
 52136  1  0
 55137  1  6
 56138  1  0
 56139  1  0
 56140  1  0
 57141  1  0
 60142  1  1
 61143  1  0
 61144  1  0
 63145  1  0
 63146  1  0
 64147  1  0
 67148  1  6
 68149  1  0
 68150  1  0
 68151  1  0
 69152  1  0
 72153  1  1
 73154  1  0
 73155  1  0
 73156  1  0
 74157  1  0
 77158  1  6
 78159  1  0
 78160  1  0
 78161  1  0
 79162  1  0
 82163  1  6
 83164  1  0
 83165  1  0
 83166  1  0
 84167  1  0
M  END
