
     RDKit          3D

187189  0  0  0  0  0  0  0  0999 V2000
   -8.9827    4.9106    3.4952 C   0  0  0  0  0  0  0  0  0  0  0  0
   -9.2600    4.4176    2.1112 C   0  0  0  0  0  0  0  0  0  0  0  0
   -9.3508    5.2647    1.1838 O   0  0  0  0  0  0  0  0  0  0  0  0
   -9.3782    3.0029    1.8537 N   0  0  0  0  0  0  0  0  0  0  0  0
   -9.4977    2.3418    0.5391 C   0  0  2  0  0  0  0  0  0  0  0  0
   -8.1507    2.2269   -0.1997 C   0  0  0  0  0  0  0  0  0  0  0  0
   -7.3863    3.8352   -0.6282 S   0  0  0  0  0  0  0  0  0  0  0  0
   -6.2305    3.9053    0.7861 C   0  0  0  0  0  0  0  0  0  0  0  0
   -4.8720    3.4105    0.3729 C   0  0  0  0  0  0  0  0  0  0  0  0
   -4.3911    2.1681    0.8116 C   0  0  0  0  0  0  0  0  0  0  0  0
   -3.0800    1.7588    0.5141 C   0  0  0  0  0  0  0  0  0  0  0  0
   -2.2495    2.6210   -0.2280 C   0  0  0  0  0  0  0  0  0  0  0  0
   -2.7261    3.8647   -0.6796 C   0  0  0  0  0  0  0  0  0  0  0  0
   -4.0403    4.2469   -0.3839 C   0  0  0  0  0  0  0  0  0  0  0  0
   -1.7917    4.8277   -1.3542 C   0  0  0  0  0  0  0  0  0  0  0  0
   -0.6429    5.4864   -0.1047 S   0  0  0  0  0  0  0  0  0  0  0  0
    0.3696    6.4598   -1.2822 C   0  0  0  0  0  0  0  0  0  0  0  0
    1.7600    6.7565   -0.7037 C   0  0  1  0  0  0  0  0  0  0  0  0
    1.6392    7.6103    0.5371 C   0  0  0  0  0  0  0  0  0  0  0  0
    1.4821    9.0210    0.4215 N   0  0  0  0  0  0  0  0  0  0  0  0
    1.6628    7.0828    1.6796 O   0  0  0  0  0  0  0  0  0  0  0  0
    2.4902    5.5076   -0.4354 N   0  0  0  0  0  0  0  0  0  0  0  0
    3.8859    5.4126   -0.0989 C   0  0  0  0  0  0  0  0  0  0  0  0
    4.3818    4.2665    0.0807 O   0  0  0  0  0  0  0  0  0  0  0  0
    4.7783    6.6196    0.0646 C   0  0  1  0  0  0  0  0  0  0  0  0
    5.2978    6.7123    1.5068 C   0  0  0  0  0  0  0  0  0  0  0  0
    5.8735    6.5895   -0.9152 N   0  0  0  0  0  0  0  0  0  0  0  0
    7.1364    5.9559   -0.6775 C   0  0  0  0  0  0  0  0  0  0  0  0
    8.0989    6.6462   -0.2460 O   0  0  0  0  0  0  0  0  0  0  0  0
    7.3401    4.4953   -1.0037 C   0  0  1  0  0  0  0  0  0  0  0  0
    8.4958    4.2971   -1.9831 C   0  0  0  0  0  0  0  0  0  0  0  0
    7.5182    3.6959    0.2174 N   0  0  0  0  0  0  0  0  0  0  0  0
    8.5083    3.9705    1.2166 C   0  0  0  0  0  0  0  0  0  0  0  0
    8.1406    4.4277    2.3367 O   0  0  0  0  0  0  0  0  0  0  0  0
    9.9517    3.5972    1.0057 C   0  0  1  0  0  0  0  0  0  0  0  0
   10.8448    4.8372    1.1244 C   0  0  0  0  0  0  0  0  0  0  0  0
   10.3471    2.6085    2.0131 N   0  0  0  0  0  0  0  0  0  0  0  0
   10.5747    1.2138    1.7493 C   0  0  0  0  0  0  0  0  0  0  0  0
   10.2630    0.3769    2.6454 O   0  0  0  0  0  0  0  0  0  0  0  0
   11.1793    0.7151    0.4492 C   0  0  1  0  0  0  0  0  0  0  0  0
   12.4997    1.4325    0.1524 C   0  0  0  0  0  0  0  0  0  0  0  0
   11.4425   -0.7284    0.5429 N   0  0  0  0  0  0  0  0  0  0  0  0
   10.6481   -1.7538   -0.0770 C   0  0  0  0  0  0  0  0  0  0  0  0
   11.1595   -2.8918   -0.2433 O   0  0  0  0  0  0  0  0  0  0  0  0
    9.2096   -1.5396   -0.4984 C   0  0  1  0  0  0  0  0  0  0  0  0
    9.1267   -1.5333   -2.0289 C   0  0  0  0  0  0  0  0  0  0  0  0
    8.3731   -2.5701    0.1395 N   0  0  0  0  0  0  0  0  0  0  0  0
    7.6988   -3.6557   -0.5262 C   0  0  0  0  0  0  0  0  0  0  0  0
    6.9866   -3.4354   -1.5463 O   0  0  0  0  0  0  0  0  0  0  0  0
    7.7425   -5.0474    0.0503 C   0  0  1  0  0  0  0  0  0  0  0  0
    9.1993   -5.4769    0.2602 C   0  0  0  0  0  0  0  0  0  0  0  0
    7.0188   -5.0842    1.3272 N   0  0  0  0  0  0  0  0  0  0  0  0
    5.8400   -5.8571    1.6012 C   0  0  0  0  0  0  0  0  0  0  0  0
    5.0763   -5.4704    2.5375 O   0  0  0  0  0  0  0  0  0  0  0  0
    5.4731   -7.1107    0.8306 C   0  0  1  0  0  0  0  0  0  0  0  0
    6.5495   -8.1885    0.9989 C   0  0  0  0  0  0  0  0  0  0  0  0
    4.1949   -7.6496    1.3133 N   0  0  0  0  0  0  0  0  0  0  0  0
    2.9968   -7.7000    0.5260 C   0  0  0  0  0  0  0  0  0  0  0  0
    2.2184   -8.6780    0.6637 O   0  0  0  0  0  0  0  0  0  0  0  0
    2.6073   -6.5793   -0.4130 C   0  0  1  0  0  0  0  0  0  0  0  0
    2.6307   -7.0989   -1.8582 C   0  0  0  0  0  0  0  0  0  0  0  0
    1.2866   -6.0688   -0.0073 N   0  0  0  0  0  0  0  0  0  0  0  0
    0.2881   -5.5305   -0.8919 C   0  0  0  0  0  0  0  0  0  0  0  0
    0.6395   -4.8646   -1.9050 O   0  0  0  0  0  0  0  0  0  0  0  0
   -1.1759   -5.8178   -0.6431 C   0  0  1  0  0  0  0  0  0  0  0  0
   -1.5739   -5.7083    0.8338 C   0  0  0  0  0  0  0  0  0  0  0  0
   -2.0615   -5.0189   -1.5086 N   0  0  0  0  0  0  0  0  0  0  0  0
   -2.0692   -3.5867   -1.6422 C   0  0  0  0  0  0  0  0  0  0  0  0
   -2.3369   -3.1001   -2.7768 O   0  0  0  0  0  0  0  0  0  0  0  0
   -1.8157   -2.6540   -0.4737 C   0  0  1  0  0  0  0  0  0  0  0  0
   -1.7200   -1.1651   -0.8755 C   0  0  0  0  0  0  0  0  0  0  0  0
   -0.9949   -0.1658    0.4795 S   0  0  0  0  0  0  0  0  0  0  0  0
   -2.5667    0.4899    1.1672 C   0  0  0  0  0  0  0  0  0  0  0  0
   -2.8057   -2.8418    0.6004 N   0  0  0  0  0  0  0  0  0  0  0  0
   -4.2416   -2.9067    0.4921 C   0  0  0  0  0  0  0  0  0  0  0  0
   -4.8993   -3.2447    1.5120 O   0  0  0  0  0  0  0  0  0  0  0  0
   -5.0007   -2.5722   -0.7684 C   0  0  1  0  0  0  0  0  0  0  0  0
   -5.6542   -3.8263   -1.3660 C   0  0  0  0  0  0  0  0  0  0  0  0
   -5.9579   -1.4876   -0.4993 N   0  0  0  0  0  0  0  0  0  0  0  0
   -7.3877   -1.6244   -0.4829 C   0  0  0  0  0  0  0  0  0  0  0  0
   -8.0790   -0.8965   -1.2451 O   0  0  0  0  0  0  0  0  0  0  0  0
   -8.0857   -2.5027    0.5172 C   0  0  1  0  0  0  0  0  0  0  0  0
   -8.5894   -1.6442    1.6876 C   0  0  0  0  0  0  0  0  0  0  0  0
   -9.1648   -3.2444   -0.1551 N   0  0  0  0  0  0  0  0  0  0  0  0
  -10.5469   -3.1533    0.2046 C   0  0  0  0  0  0  0  0  0  0  0  0
  -10.9594   -3.7440    1.2382 O   0  0  0  0  0  0  0  0  0  0  0  0
  -11.5056   -2.4048   -0.6781 C   0  0  1  0  0  0  0  0  0  0  0  0
  -12.3671   -3.3895   -1.4755 C   0  0  0  0  0  0  0  0  0  0  0  0
  -12.3642   -1.5399    0.1395 N   0  0  0  0  0  0  0  0  0  0  0  0
  -12.4863   -0.1100    0.0262 C   0  0  0  0  0  0  0  0  0  0  0  0
  -13.2800    0.4811    0.8125 O   0  0  0  0  0  0  0  0  0  0  0  0
  -11.7346    0.7052   -1.0039 C   0  0  1  0  0  0  0  0  0  0  0  0
  -12.3547    0.5293   -2.3950 C   0  0  0  0  0  0  0  0  0  0  0  0
  -11.7718    2.1301   -0.6450 N   0  0  0  0  0  0  0  0  0  0  0  0
  -10.6096    2.9039   -0.3256 C   0  0  0  0  0  0  0  0  0  0  0  0
  -10.5336    4.0792   -0.7803 O   0  0  0  0  0  0  0  0  0  0  0  0
   -8.0291    5.4807    3.5029 H   0  0  0  0  0  0  0  0  0  0  0  0
   -9.8023    5.5805    3.8242 H   0  0  0  0  0  0  0  0  0  0  0  0
   -8.8964    4.0683    4.2149 H   0  0  0  0  0  0  0  0  0  0  0  0
   -9.3626    2.3682    2.6856 H   0  0  0  0  0  0  0  0  0  0  0  0
   -9.7845    1.2974    0.7684 H   0  0  0  0  0  0  0  0  0  0  0  0
   -8.3149    1.6855   -1.1544 H   0  0  0  0  0  0  0  0  0  0  0  0
   -7.4548    1.6014    0.3992 H   0  0  0  0  0  0  0  0  0  0  0  0
   -6.6138    3.3381    1.6563 H   0  0  0  0  0  0  0  0  0  0  0  0
   -6.1507    4.9617    1.1165 H   0  0  0  0  0  0  0  0  0  0  0  0
   -5.0233    1.5386    1.4218 H   0  0  0  0  0  0  0  0  0  0  0  0
   -1.2135    2.3690   -0.4143 H   0  0  0  0  0  0  0  0  0  0  0  0
   -4.4019    5.2174   -0.7010 H   0  0  0  0  0  0  0  0  0  0  0  0
   -2.3511    5.6709   -1.8109 H   0  0  0  0  0  0  0  0  0  0  0  0
   -1.2435    4.2990   -2.1583 H   0  0  0  0  0  0  0  0  0  0  0  0
    0.4952    5.9037   -2.2352 H   0  0  0  0  0  0  0  0  0  0  0  0
   -0.1618    7.4099   -1.5118 H   0  0  0  0  0  0  0  0  0  0  0  0
    2.3187    7.3293   -1.4772 H   0  0  0  0  0  0  0  0  0  0  0  0
    1.3936    9.4689   -0.5190 H   0  0  0  0  0  0  0  0  0  0  0  0
    1.3047    9.6050    1.2679 H   0  0  0  0  0  0  0  0  0  0  0  0
    1.9896    4.5988   -0.5689 H   0  0  0  0  0  0  0  0  0  0  0  0
    4.2054    7.5519   -0.1169 H   0  0  0  0  0  0  0  0  0  0  0  0
    5.9838    7.5805    1.6189 H   0  0  0  0  0  0  0  0  0  0  0  0
    5.8471    5.7901    1.7923 H   0  0  0  0  0  0  0  0  0  0  0  0
    4.4499    6.8480    2.2105 H   0  0  0  0  0  0  0  0  0  0  0  0
    5.8533    7.3039   -1.6785 H   0  0  0  0  0  0  0  0  0  0  0  0
    6.4289    4.1275   -1.5218 H   0  0  0  0  0  0  0  0  0  0  0  0
    9.4305    4.7644   -1.6098 H   0  0  0  0  0  0  0  0  0  0  0  0
    8.6720    3.2138   -2.1534 H   0  0  0  0  0  0  0  0  0  0  0  0
    8.2460    4.7693   -2.9592 H   0  0  0  0  0  0  0  0  0  0  0  0
    6.7321    3.0689    0.5005 H   0  0  0  0  0  0  0  0  0  0  0  0
   10.0680    3.1746   -0.0115 H   0  0  0  0  0  0  0  0  0  0  0  0
   10.5451    5.6089    0.3872 H   0  0  0  0  0  0  0  0  0  0  0  0
   11.9055    4.5618    0.9316 H   0  0  0  0  0  0  0  0  0  0  0  0
   10.7872    5.2652    2.1482 H   0  0  0  0  0  0  0  0  0  0  0  0
   10.2753    2.8914    3.0179 H   0  0  0  0  0  0  0  0  0  0  0  0
   10.4855    0.9234   -0.3903 H   0  0  0  0  0  0  0  0  0  0  0  0
   12.3246    2.4877   -0.1474 H   0  0  0  0  0  0  0  0  0  0  0  0
   13.1676    1.4177    1.0458 H   0  0  0  0  0  0  0  0  0  0  0  0
   13.0273    0.9317   -0.6912 H   0  0  0  0  0  0  0  0  0  0  0  0
   12.2961   -1.0373    1.0583 H   0  0  0  0  0  0  0  0  0  0  0  0
    8.8421   -0.5529   -0.1412 H   0  0  0  0  0  0  0  0  0  0  0  0
    9.4061   -2.5251   -2.4479 H   0  0  0  0  0  0  0  0  0  0  0  0
    9.8247   -0.7743   -2.4439 H   0  0  0  0  0  0  0  0  0  0  0  0
    8.1008   -1.2625   -2.3610 H   0  0  0  0  0  0  0  0  0  0  0  0
    8.3939   -2.5878    1.1820 H   0  0  0  0  0  0  0  0  0  0  0  0
    7.2861   -5.7441   -0.6796 H   0  0  0  0  0  0  0  0  0  0  0  0
    9.6941   -4.8329    1.0165 H   0  0  0  0  0  0  0  0  0  0  0  0
    9.2504   -6.5254    0.6168 H   0  0  0  0  0  0  0  0  0  0  0  0
    9.7583   -5.4074   -0.6969 H   0  0  0  0  0  0  0  0  0  0  0  0
    7.3384   -4.4383    2.0830 H   0  0  0  0  0  0  0  0  0  0  0  0
    5.3882   -6.8680   -0.2498 H   0  0  0  0  0  0  0  0  0  0  0  0
    6.7983   -8.3323    2.0739 H   0  0  0  0  0  0  0  0  0  0  0  0
    7.4685   -7.9166    0.4460 H   0  0  0  0  0  0  0  0  0  0  0  0
    6.1862   -9.1561    0.5872 H   0  0  0  0  0  0  0  0  0  0  0  0
    4.1850   -8.1433    2.2349 H   0  0  0  0  0  0  0  0  0  0  0  0
    3.3372   -5.7464   -0.3279 H   0  0  0  0  0  0  0  0  0  0  0  0
    3.5832   -7.6349   -2.0633 H   0  0  0  0  0  0  0  0  0  0  0  0
    1.7843   -7.7987   -2.0373 H   0  0  0  0  0  0  0  0  0  0  0  0
    2.5667   -6.2591   -2.5792 H   0  0  0  0  0  0  0  0  0  0  0  0
    1.0835   -6.0392    1.0193 H   0  0  0  0  0  0  0  0  0  0  0  0
   -1.3265   -6.8844   -0.9197 H   0  0  0  0  0  0  0  0  0  0  0  0
   -1.1053   -4.8263    1.3135 H   0  0  0  0  0  0  0  0  0  0  0  0
   -1.2284   -6.6126    1.3792 H   0  0  0  0  0  0  0  0  0  0  0  0
   -2.6765   -5.6514    0.9343 H   0  0  0  0  0  0  0  0  0  0  0  0
   -2.6011   -5.5498   -2.2304 H   0  0  0  0  0  0  0  0  0  0  0  0
   -0.8142   -2.9249   -0.0762 H   0  0  0  0  0  0  0  0  0  0  0  0
   -2.6973   -0.7437   -1.1890 H   0  0  0  0  0  0  0  0  0  0  0  0
   -1.0296   -1.0683   -1.7371 H   0  0  0  0  0  0  0  0  0  0  0  0
   -3.3572   -0.2891    1.1292 H   0  0  0  0  0  0  0  0  0  0  0  0
   -2.3829    0.7147    2.2355 H   0  0  0  0  0  0  0  0  0  0  0  0
   -2.4208   -2.9347    1.5685 H   0  0  0  0  0  0  0  0  0  0  0  0
   -4.3182   -2.1953   -1.5457 H   0  0  0  0  0  0  0  0  0  0  0  0
   -4.8723   -4.5257   -1.7315 H   0  0  0  0  0  0  0  0  0  0  0  0
   -6.2958   -3.5517   -2.2309 H   0  0  0  0  0  0  0  0  0  0  0  0
   -6.2632   -4.3777   -0.6210 H   0  0  0  0  0  0  0  0  0  0  0  0
   -5.5905   -0.5137   -0.6072 H   0  0  0  0  0  0  0  0  0  0  0  0
   -7.3798   -3.2372    0.9426 H   0  0  0  0  0  0  0  0  0  0  0  0
   -9.0231   -2.2906    2.4816 H   0  0  0  0  0  0  0  0  0  0  0  0
   -7.7440   -1.0741    2.1336 H   0  0  0  0  0  0  0  0  0  0  0  0
   -9.3669   -0.9301    1.3449 H   0  0  0  0  0  0  0  0  0  0  0  0
   -8.9208   -3.8243   -0.9957 H   0  0  0  0  0  0  0  0  0  0  0  0
  -10.9158   -1.8152   -1.4056 H   0  0  0  0  0  0  0  0  0  0  0  0
  -13.1532   -2.8419   -2.0380 H   0  0  0  0  0  0  0  0  0  0  0  0
  -11.7375   -3.9451   -2.2052 H   0  0  0  0  0  0  0  0  0  0  0  0
  -12.8633   -4.1178   -0.7985 H   0  0  0  0  0  0  0  0  0  0  0  0
  -12.9612   -2.0084    0.8598 H   0  0  0  0  0  0  0  0  0  0  0  0
  -10.6811    0.3551   -1.0478 H   0  0  0  0  0  0  0  0  0  0  0  0
  -12.3693   -0.5361   -2.6947 H   0  0  0  0  0  0  0  0  0  0  0  0
  -13.3927    0.9209   -2.4100 H   0  0  0  0  0  0  0  0  0  0  0  0
  -11.7508    1.0836   -3.1394 H   0  0  0  0  0  0  0  0  0  0  0  0
  -12.6668    2.6515   -0.7879 H   0  0  0  0  0  0  0  0  0  0  0  0
  1  2  1  0
  2  3  2  0
  2  4  1  0
  4  5  1  0
  5  6  1  0
  6  7  1  0
  7  8  1  0
  8  9  1  0
  9 10  2  0
 10 11  1  0
 11 12  2  0
 12 13  1  0
 13 14  2  0
 13 15  1  0
 15 16  1  0
 16 17  1  0
 17 18  1  0
 18 19  1  0
 19 20  1  0
 19 21  2  0
 18 22  1  0
 22 23  1  0
 23 24  2  0
 23 25  1  0
 25 26  1  0
 25 27  1  0
 27 28  1  0
 28 29  2  0
 28 30  1  0
 30 31  1  0
 30 32  1  0
 32 33  1  0
 33 34  2  0
 33 35  1  0
 35 36  1  0
 35 37  1  0
 37 38  1  0
 38 39  2  0
 38 40  1  0
 40 41  1  0
 40 42  1  0
 42 43  1  0
 43 44  2  0
 43 45  1  0
 45 46  1  0
 45 47  1  0
 47 48  1  0
 48 49  2  0
 48 50  1  0
 50 51  1  0
 50 52  1  0
 52 53  1  0
 53 54  2  0
 53 55  1  0
 55 56  1  0
 55 57  1  0
 57 58  1  0
 58 59  2  0
 58 60  1  0
 60 61  1  0
 60 62  1  0
 62 63  1  0
 63 64  2  0
 63 65  1  0
 65 66  1  0
 65 67  1  0
 67 68  1  0
 68 69  2  0
 68 70  1  0
 70 71  1  0
 71 72  1  0
 72 73  1  0
 70 74  1  0
 74 75  1  0
 75 76  2  0
 75 77  1  0
 77 78  1  0
 77 79  1  0
 79 80  1  0
 80 81  2  0
 80 82  1  0
 82 83  1  0
 82 84  1  0
 84 85  1  0
 85 86  2  0
 85 87  1  0
 87 88  1  0
 87 89  1  0
 89 90  1  0
 90 91  2  0
 90 92  1  0
 92 93  1  0
 92 94  1  0
 94 95  1  0
 95 96  2  0
 95  5  1  0
 14  9  1  0
 73 11  1  0
  1 97  1  0
  1 98  1  0
  1 99  1  0
  4100  1  0
  5101  1  1
  6102  1  0
  6103  1  0
  8104  1  0
  8105  1  0
 10106  1  0
 12107  1  0
 14108  1  0
 15109  1  0
 15110  1  0
 17111  1  0
 17112  1  0
 18113  1  6
 20114  1  0
 20115  1  0
 22116  1  0
 25117  1  6
 26118  1  0
 26119  1  0
 26120  1  0
 27121  1  0
 30122  1  6
 31123  1  0
 31124  1  0
 31125  1  0
 32126  1  0
 35127  1  6
 36128  1  0
 36129  1  0
 36130  1  0
 37131  1  0
 40132  1  6
 41133  1  0
 41134  1  0
 41135  1  0
 42136  1  0
 45137  1  1
 46138  1  0
 46139  1  0
 46140  1  0
 47141  1  0
 50142  1  6
 51143  1  0
 51144  1  0
 51145  1  0
 52146  1  0
 55147  1  6
 56148  1  0
 56149  1  0
 56150  1  0
 57151  1  0
 60152  1  6
 61153  1  0
 61154  1  0
 61155  1  0
 62156  1  0
 65157  1  6
 66158  1  0
 66159  1  0
 66160  1  0
 67161  1  0
 70162  1  1
 71163  1  0
 71164  1  0
 73165  1  0
 73166  1  0
 74167  1  0
 77168  1  6
 78169  1  0
 78170  1  0
 78171  1  0
 79172  1  0
 82173  1  1
 83174  1  0
 83175  1  0
 83176  1  0
 84177  1  0
 87178  1  6
 88179  1  0
 88180  1  0
 88181  1  0
 89182  1  0
 92183  1  6
 93184  1  0
 93185  1  0
 93186  1  0
 94187  1  0
M  END
