
     RDKit          3D

177179  0  0  0  0  0  0  0  0999 V2000
   -6.0201    4.0326   -2.6679 C   0  0  0  0  0  0  0  0  0  0  0  0
   -7.4564    3.7228   -2.3834 C   0  0  0  0  0  0  0  0  0  0  0  0
   -8.3447    4.3679   -3.0036 O   0  0  0  0  0  0  0  0  0  0  0  0
   -7.8691    2.7019   -1.4567 N   0  0  0  0  0  0  0  0  0  0  0  0
   -7.0331    2.1862   -0.3615 C   0  0  1  0  0  0  0  0  0  0  0  0
   -6.6912    3.3239    0.6299 C   0  0  0  0  0  0  0  0  0  0  0  0
   -6.2229    2.8164    2.3306 S   0  0  0  0  0  0  0  0  0  0  0  0
   -4.8694    1.6421    1.9492 C   0  0  0  0  0  0  0  0  0  0  0  0
   -3.7333    2.2282    1.1488 C   0  0  0  0  0  0  0  0  0  0  0  0
   -3.0428    1.4025    0.2498 C   0  0  0  0  0  0  0  0  0  0  0  0
   -1.8773    1.8471   -0.3994 C   0  0  0  0  0  0  0  0  0  0  0  0
   -1.4618    3.1697   -0.1944 C   0  0  0  0  0  0  0  0  0  0  0  0
   -2.1789    4.0264    0.6497 C   0  0  0  0  0  0  0  0  0  0  0  0
   -3.2743    3.5337    1.3688 C   0  0  0  0  0  0  0  0  0  0  0  0
   -1.7567    5.4560    0.7918 C   0  0  0  0  0  0  0  0  0  0  0  0
   -0.3861    5.5940    1.9953 S   0  0  0  0  0  0  0  0  0  0  0  0
    0.2590    7.1605    1.3057 C   0  0  0  0  0  0  0  0  0  0  0  0
    1.2898    6.8705    0.1928 C   0  0  1  0  0  0  0  0  0  0  0  0
    1.3718    8.0401   -0.7531 C   0  0  0  0  0  0  0  0  0  0  0  0
    0.8841    7.9276   -2.0899 N   0  0  0  0  0  0  0  0  0  0  0  0
    1.8648    9.1314   -0.3619 O   0  0  0  0  0  0  0  0  0  0  0  0
    2.6092    6.6251    0.7752 N   0  0  0  0  0  0  0  0  0  0  0  0
    3.6756    6.0370    0.0043 C   0  0  0  0  0  0  0  0  0  0  0  0
    3.4075    5.2902   -0.9747 O   0  0  0  0  0  0  0  0  0  0  0  0
    5.1159    6.3379    0.3360 C   0  0  1  0  0  0  0  0  0  0  0  0
    5.3746    7.8439    0.1666 C   0  0  0  0  0  0  0  0  0  0  0  0
    5.4148    5.9263    1.7099 N   0  0  0  0  0  0  0  0  0  0  0  0
    6.7482    5.7125    2.2036 C   0  0  0  0  0  0  0  0  0  0  0  0
    7.0184    6.0621    3.3855 O   0  0  0  0  0  0  0  0  0  0  0  0
    7.8318    5.0922    1.3464 C   0  0  1  0  0  0  0  0  0  0  0  0
    8.6685    6.1910    0.6758 C   0  0  0  0  0  0  0  0  0  0  0  0
    8.7122    4.2481    2.1660 N   0  0  0  0  0  0  0  0  0  0  0  0
    9.3338    3.0335    1.7056 C   0  0  0  0  0  0  0  0  0  0  0  0
    9.8882    2.2826    2.5501 O   0  0  0  0  0  0  0  0  0  0  0  0
    9.3974    2.6551    0.2360 C   0  0  1  0  0  0  0  0  0  0  0  0
   10.8144    2.2224   -0.1659 C   0  0  0  0  0  0  0  0  0  0  0  0
    8.4174    1.6135   -0.0918 N   0  0  0  0  0  0  0  0  0  0  0  0
    8.5621    0.2284    0.2885 C   0  0  0  0  0  0  0  0  0  0  0  0
    8.9898   -0.0603    1.4366 O   0  0  0  0  0  0  0  0  0  0  0  0
    8.2356   -0.9017   -0.6636 C   0  0  1  0  0  0  0  0  0  0  0  0
    7.9390   -0.4254   -2.0933 C   0  0  0  0  0  0  0  0  0  0  0  0
    9.3596   -1.8411   -0.6970 N   0  0  0  0  0  0  0  0  0  0  0  0
    9.1798   -3.2122   -1.0699 C   0  0  0  0  0  0  0  0  0  0  0  0
    9.4527   -3.5690   -2.2462 O   0  0  0  0  0  0  0  0  0  0  0  0
    8.8062   -4.2587   -0.0512 C   0  0  1  0  0  0  0  0  0  0  0  0
   10.0059   -4.5711    0.8484 C   0  0  0  0  0  0  0  0  0  0  0  0
    7.6807   -3.8094    0.7724 N   0  0  0  0  0  0  0  0  0  0  0  0
    6.3806   -4.4227    0.8085 C   0  0  0  0  0  0  0  0  0  0  0  0
    5.5857   -4.0884    1.7273 O   0  0  0  0  0  0  0  0  0  0  0  0
    5.9492   -5.4869   -0.1805 C   0  0  1  0  0  0  0  0  0  0  0  0
    6.3667   -6.8675    0.3558 C   0  0  0  0  0  0  0  0  0  0  0  0
    4.4979   -5.4087   -0.3962 N   0  0  0  0  0  0  0  0  0  0  0  0
    3.7060   -6.5316   -0.8026 C   0  0  0  0  0  0  0  0  0  0  0  0
    3.7765   -6.9379   -1.9921 O   0  0  0  0  0  0  0  0  0  0  0  0
    2.8819   -7.2969    0.2087 C   0  0  1  0  0  0  0  0  0  0  0  0
    2.5780   -6.4734    1.4644 C   0  0  0  0  0  0  0  0  0  0  0  0
    1.6522   -7.8434   -0.3887 N   0  0  0  0  0  0  0  0  0  0  0  0
    0.7408   -7.1290   -1.2427 C   0  0  0  0  0  0  0  0  0  0  0  0
    0.5881   -7.5317   -2.4254 O   0  0  0  0  0  0  0  0  0  0  0  0
   -0.0883   -5.9519   -0.7709 C   0  0  1  0  0  0  0  0  0  0  0  0
   -0.6109   -6.1374    0.6707 C   0  0  0  0  0  0  0  0  0  0  0  0
    0.6710   -4.7036   -0.9219 N   0  0  0  0  0  0  0  0  0  0  0  0
    0.0862   -3.3963   -1.0454 C   0  0  0  0  0  0  0  0  0  0  0  0
    0.8168   -2.4498   -1.4566 O   0  0  0  0  0  0  0  0  0  0  0  0
   -1.3698   -3.1199   -0.7038 C   0  0  1  0  0  0  0  0  0  0  0  0
   -1.5883   -1.6317   -0.3633 C   0  0  0  0  0  0  0  0  0  0  0  0
   -1.7870   -0.5895   -1.8735 S   0  0  0  0  0  0  0  0  0  0  0  0
   -0.9978    0.9485   -1.2456 C   0  0  0  0  0  0  0  0  0  0  0  0
   -2.2483   -3.5652   -1.7965 N   0  0  0  0  0  0  0  0  0  0  0  0
   -3.6492   -3.8899   -1.6726 C   0  0  0  0  0  0  0  0  0  0  0  0
   -4.2218   -4.4320   -2.6554 O   0  0  0  0  0  0  0  0  0  0  0  0
   -4.4916   -3.4904   -0.4788 C   0  0  1  0  0  0  0  0  0  0  0  0
   -5.1375   -2.1270   -0.7584 C   0  0  0  0  0  0  0  0  0  0  0  0
   -5.5329   -4.4934   -0.2254 N   0  0  0  0  0  0  0  0  0  0  0  0
   -6.5909   -4.2549    0.7082 C   0  0  0  0  0  0  0  0  0  0  0  0
   -6.3452   -4.2995    1.9450 O   0  0  0  0  0  0  0  0  0  0  0  0
   -7.9836   -3.9162    0.2212 C   0  0  1  0  0  0  0  0  0  0  0  0
   -8.4007   -4.8715   -0.9026 C   0  0  0  0  0  0  0  0  0  0  0  0
   -8.9580   -4.0124    1.3178 N   0  0  0  0  0  0  0  0  0  0  0  0
  -10.1449   -3.2012    1.4164 C   0  0  0  0  0  0  0  0  0  0  0  0
  -11.2013   -3.7289    1.8710 O   0  0  0  0  0  0  0  0  0  0  0  0
  -10.1804   -1.7566    0.9490 C   0  0  1  0  0  0  0  0  0  0  0  0
  -10.7487   -1.6888   -0.4760 C   0  0  0  0  0  0  0  0  0  0  0  0
  -10.9949   -0.9323    1.8629 N   0  0  0  0  0  0  0  0  0  0  0  0
  -10.9363    0.5044    1.9988 C   0  0  0  0  0  0  0  0  0  0  0  0
  -11.6668    1.0385    2.8826 O   0  0  0  0  0  0  0  0  0  0  0  0
  -10.0719    1.3911    1.1174 C   0  0  1  0  0  0  0  0  0  0  0  0
  -10.3453    2.8839    1.3629 C   0  0  0  0  0  0  0  0  0  0  0  0
   -8.6486    1.1251    1.3457 N   0  0  0  0  0  0  0  0  0  0  0  0
   -7.7221    0.9972    0.2617 C   0  0  0  0  0  0  0  0  0  0  0  0
   -7.4730   -0.1458   -0.1955 O   0  0  0  0  0  0  0  0  0  0  0  0
   -5.7765    5.0441   -2.2744 H   0  0  0  0  0  0  0  0  0  0  0  0
   -5.3256    3.2961   -2.2205 H   0  0  0  0  0  0  0  0  0  0  0  0
   -5.8569    4.0309   -3.7700 H   0  0  0  0  0  0  0  0  0  0  0  0
   -8.8813    2.4417   -1.4759 H   0  0  0  0  0  0  0  0  0  0  0  0
   -6.0790    1.8029   -0.7842 H   0  0  0  0  0  0  0  0  0  0  0  0
   -7.5714    3.9950    0.7326 H   0  0  0  0  0  0  0  0  0  0  0  0
   -5.8716    3.9481    0.2101 H   0  0  0  0  0  0  0  0  0  0  0  0
   -4.4588    1.2965    2.9214 H   0  0  0  0  0  0  0  0  0  0  0  0
   -5.2900    0.7510    1.4422 H   0  0  0  0  0  0  0  0  0  0  0  0
   -3.4218    0.4109    0.0839 H   0  0  0  0  0  0  0  0  0  0  0  0
   -0.5694    3.5300   -0.6931 H   0  0  0  0  0  0  0  0  0  0  0  0
   -3.7809    4.1750    2.0770 H   0  0  0  0  0  0  0  0  0  0  0  0
   -2.6024    6.0830    1.1498 H   0  0  0  0  0  0  0  0  0  0  0  0
   -1.4588    5.8386   -0.2076 H   0  0  0  0  0  0  0  0  0  0  0  0
   -0.5825    7.7774    0.9170 H   0  0  0  0  0  0  0  0  0  0  0  0
    0.7193    7.7468    2.1281 H   0  0  0  0  0  0  0  0  0  0  0  0
    0.9647    5.9670   -0.3771 H   0  0  0  0  0  0  0  0  0  0  0  0
    0.9514    8.7363   -2.7423 H   0  0  0  0  0  0  0  0  0  0  0  0
    0.3975    7.0645   -2.4149 H   0  0  0  0  0  0  0  0  0  0  0  0
    2.8842    7.2113    1.5935 H   0  0  0  0  0  0  0  0  0  0  0  0
    5.7631    5.7879   -0.3782 H   0  0  0  0  0  0  0  0  0  0  0  0
    5.2056    8.1380   -0.8923 H   0  0  0  0  0  0  0  0  0  0  0  0
    6.4206    8.0919    0.4314 H   0  0  0  0  0  0  0  0  0  0  0  0
    4.7056    8.4461    0.8174 H   0  0  0  0  0  0  0  0  0  0  0  0
    4.6769    6.0614    2.4365 H   0  0  0  0  0  0  0  0  0  0  0  0
    7.3499    4.4661    0.5642 H   0  0  0  0  0  0  0  0  0  0  0  0
    9.5909    5.7691    0.2182 H   0  0  0  0  0  0  0  0  0  0  0  0
    8.9719    6.9677    1.4135 H   0  0  0  0  0  0  0  0  0  0  0  0
    8.0907    6.6646   -0.1452 H   0  0  0  0  0  0  0  0  0  0  0  0
    9.0349    4.6196    3.0935 H   0  0  0  0  0  0  0  0  0  0  0  0
    9.1729    3.5426   -0.3856 H   0  0  0  0  0  0  0  0  0  0  0  0
   11.1449    1.3320    0.4134 H   0  0  0  0  0  0  0  0  0  0  0  0
   10.8476    1.9792   -1.2507 H   0  0  0  0  0  0  0  0  0  0  0  0
   11.5309    3.0521    0.0274 H   0  0  0  0  0  0  0  0  0  0  0  0
    7.6371    1.8765   -0.7346 H   0  0  0  0  0  0  0  0  0  0  0  0
    7.3264   -1.4133   -0.2874 H   0  0  0  0  0  0  0  0  0  0  0  0
    8.7785    0.1849   -2.4888 H   0  0  0  0  0  0  0  0  0  0  0  0
    7.0021    0.1708   -2.1159 H   0  0  0  0  0  0  0  0  0  0  0  0
    7.7915   -1.2981   -2.7629 H   0  0  0  0  0  0  0  0  0  0  0  0
   10.3104   -1.4408   -0.8637 H   0  0  0  0  0  0  0  0  0  0  0  0
    8.5602   -5.1951   -0.5897 H   0  0  0  0  0  0  0  0  0  0  0  0
    9.7276   -5.3652    1.5743 H   0  0  0  0  0  0  0  0  0  0  0  0
   10.8558   -4.9415    0.2366 H   0  0  0  0  0  0  0  0  0  0  0  0
   10.3247   -3.6669    1.4092 H   0  0  0  0  0  0  0  0  0  0  0  0
    7.8537   -3.0226    1.4413 H   0  0  0  0  0  0  0  0  0  0  0  0
    6.4397   -5.3134   -1.1573 H   0  0  0  0  0  0  0  0  0  0  0  0
    6.1665   -7.6460   -0.4071 H   0  0  0  0  0  0  0  0  0  0  0  0
    7.4506   -6.8891    0.5870 H   0  0  0  0  0  0  0  0  0  0  0  0
    5.8037   -7.1141    1.2844 H   0  0  0  0  0  0  0  0  0  0  0  0
    4.0932   -4.4620   -0.5844 H   0  0  0  0  0  0  0  0  0  0  0  0
    3.5065   -8.1500    0.5439 H   0  0  0  0  0  0  0  0  0  0  0  0
    3.5112   -6.3090    2.0472 H   0  0  0  0  0  0  0  0  0  0  0  0
    1.8644   -7.0204    2.1128 H   0  0  0  0  0  0  0  0  0  0  0  0
    2.1642   -5.4814    1.1982 H   0  0  0  0  0  0  0  0  0  0  0  0
    1.6027   -8.8851   -0.4487 H   0  0  0  0  0  0  0  0  0  0  0  0
   -0.9727   -5.9010   -1.4423 H   0  0  0  0  0  0  0  0  0  0  0  0
   -1.7089   -5.9856    0.6960 H   0  0  0  0  0  0  0  0  0  0  0  0
   -0.4243   -7.1597    1.0550 H   0  0  0  0  0  0  0  0  0  0  0  0
   -0.1513   -5.4064    1.3680 H   0  0  0  0  0  0  0  0  0  0  0  0
    1.6946   -4.7626   -1.1074 H   0  0  0  0  0  0  0  0  0  0  0  0
   -1.6022   -3.6948    0.2125 H   0  0  0  0  0  0  0  0  0  0  0  0
   -2.4956   -1.5431    0.2606 H   0  0  0  0  0  0  0  0  0  0  0  0
   -0.7554   -1.2683    0.2725 H   0  0  0  0  0  0  0  0  0  0  0  0
   -0.6721    1.5211   -2.1399 H   0  0  0  0  0  0  0  0  0  0  0  0
   -0.0802    0.7024   -0.6739 H   0  0  0  0  0  0  0  0  0  0  0  0
   -1.8154   -3.7180   -2.7403 H   0  0  0  0  0  0  0  0  0  0  0  0
   -3.8602   -3.4144    0.4283 H   0  0  0  0  0  0  0  0  0  0  0  0
   -5.9559   -2.2306   -1.5044 H   0  0  0  0  0  0  0  0  0  0  0  0
   -4.3993   -1.4066   -1.1580 H   0  0  0  0  0  0  0  0  0  0  0  0
   -5.5401   -1.7171    0.1907 H   0  0  0  0  0  0  0  0  0  0  0  0
   -5.3045   -5.4976   -0.4184 H   0  0  0  0  0  0  0  0  0  0  0  0
   -7.9584   -2.8875   -0.1920 H   0  0  0  0  0  0  0  0  0  0  0  0
   -8.3519   -5.9275   -0.5512 H   0  0  0  0  0  0  0  0  0  0  0  0
   -7.7385   -4.7508   -1.7868 H   0  0  0  0  0  0  0  0  0  0  0  0
   -9.4440   -4.6551   -1.2177 H   0  0  0  0  0  0  0  0  0  0  0  0
   -8.9643   -4.9104    1.8577 H   0  0  0  0  0  0  0  0  0  0  0  0
   -9.1461   -1.3901    0.9728 H   0  0  0  0  0  0  0  0  0  0  0  0
  -11.8417   -1.8847   -0.4690 H   0  0  0  0  0  0  0  0  0  0  0  0
  -10.5659   -0.6984   -0.9299 H   0  0  0  0  0  0  0  0  0  0  0  0
  -10.2575   -2.4339   -1.1341 H   0  0  0  0  0  0  0  0  0  0  0  0
  -11.6557   -1.4162    2.5122 H   0  0  0  0  0  0  0  0  0  0  0  0
  -10.3327    1.2064    0.0539 H   0  0  0  0  0  0  0  0  0  0  0  0
   -9.9750    3.1883    2.3664 H   0  0  0  0  0  0  0  0  0  0  0  0
   -9.8367    3.5017    0.5954 H   0  0  0  0  0  0  0  0  0  0  0  0
  -11.4321    3.1016    1.2914 H   0  0  0  0  0  0  0  0  0  0  0  0
   -8.3556    0.7369    2.2703 H   0  0  0  0  0  0  0  0  0  0  0  0
  1  2  1  0
  2  3  2  0
  2  4  1  0
  4  5  1  0
  5  6  1  0
  6  7  1  0
  7  8  1  0
  8  9  1  0
  9 10  2  0
 10 11  1  0
 11 12  2  0
 12 13  1  0
 13 14  2  0
 13 15  1  0
 15 16  1  0
 16 17  1  0
 17 18  1  0
 18 19  1  0
 19 20  1  0
 19 21  2  0
 18 22  1  0
 22 23  1  0
 23 24  2  0
 23 25  1  0
 25 26  1  0
 25 27  1  0
 27 28  1  0
 28 29  2  0
 28 30  1  0
 30 31  1  0
 30 32  1  0
 32 33  1  0
 33 34  2  0
 33 35  1  0
 35 36  1  0
 35 37  1  0
 37 38  1  0
 38 39  2  0
 38 40  1  0
 40 41  1  0
 40 42  1  0
 42 43  1  0
 43 44  2  0
 43 45  1  0
 45 46  1  0
 45 47  1  0
 47 48  1  0
 48 49  2  0
 48 50  1  0
 50 51  1  0
 50 52  1  0
 52 53  1  0
 53 54  2  0
 53 55  1  0
 55 56  1  0
 55 57  1  0
 57 58  1  0
 58 59  2  0
 58 60  1  0
 60 61  1  0
 60 62  1  0
 62 63  1  0
 63 64  2  0
 63 65  1  0
 65 66  1  0
 66 67  1  0
 67 68  1  0
 65 69  1  0
 69 70  1  0
 70 71  2  0
 70 72  1  0
 72 73  1  0
 72 74  1  0
 74 75  1  0
 75 76  2  0
 75 77  1  0
 77 78  1  0
 77 79  1  0
 79 80  1  0
 80 81  2  0
 80 82  1  0
 82 83  1  0
 82 84  1  0
 84 85  1  0
 85 86  2  0
 85 87  1  0
 87 88  1  0
 87 89  1  0
 89 90  1  0
 90 91  2  0
 90  5  1  0
 14  9  1  0
 68 11  1  0
  1 92  1  0
  1 93  1  0
  1 94  1  0
  4 95  1  0
  5 96  1  6
  6 97  1  0
  6 98  1  0
  8 99  1  0
  8100  1  0
 10101  1  0
 12102  1  0
 14103  1  0
 15104  1  0
 15105  1  0
 17106  1  0
 17107  1  0
 18108  1  6
 20109  1  0
 20110  1  0
 22111  1  0
 25112  1  6
 26113  1  0
 26114  1  0
 26115  1  0
 27116  1  0
 30117  1  6
 31118  1  0
 31119  1  0
 31120  1  0
 32121  1  0
 35122  1  6
 36123  1  0
 36124  1  0
 36125  1  0
 37126  1  0
 40127  1  1
 41128  1  0
 41129  1  0
 41130  1  0
 42131  1  0
 45132  1  6
 46133  1  0
 46134  1  0
 46135  1  0
 47136  1  0
 50137  1  6
 51138  1  0
 51139  1  0
 51140  1  0
 52141  1  0
 55142  1  1
 56143  1  0
 56144  1  0
 56145  1  0
 57146  1  0
 60147  1  6
 61148  1  0
 61149  1  0
 61150  1  0
 62151  1  0
 65152  1  1
 66153  1  0
 66154  1  0
 68155  1  0
 68156  1  0
 69157  1  0
 72158  1  1
 73159  1  0
 73160  1  0
 73161  1  0
 74162  1  0
 77163  1  6
 78164  1  0
 78165  1  0
 78166  1  0
 79167  1  0
 82168  1  6
 83169  1  0
 83170  1  0
 83171  1  0
 84172  1  0
 87173  1  6
 88174  1  0
 88175  1  0
 88176  1  0
 89177  1  0
M  END
