
     RDKit          3D

187189  0  0  0  0  0  0  0  0999 V2000
   10.3834   -6.3769    1.2777 C   0  0  0  0  0  0  0  0  0  0  0  0
    9.2683   -6.2115    2.2634 C   0  0  0  0  0  0  0  0  0  0  0  0
    9.2729   -6.9045    3.3140 O   0  0  0  0  0  0  0  0  0  0  0  0
    8.1896   -5.2898    2.0338 N   0  0  0  0  0  0  0  0  0  0  0  0
    8.2784   -4.1810    1.0767 C   0  0  1  0  0  0  0  0  0  0  0  0
    6.8903   -3.5884    0.7829 C   0  0  0  0  0  0  0  0  0  0  0  0
    5.9454   -4.7563   -0.2563 S   0  0  0  0  0  0  0  0  0  0  0  0
    5.1217   -3.5156   -1.3233 C   0  0  0  0  0  0  0  0  0  0  0  0
    3.9582   -2.8762   -0.6164 C   0  0  0  0  0  0  0  0  0  0  0  0
    3.9055   -1.4872   -0.4357 C   0  0  0  0  0  0  0  0  0  0  0  0
    2.7803   -0.8875    0.1515 C   0  0  0  0  0  0  0  0  0  0  0  0
    1.6908   -1.6892    0.5364 C   0  0  0  0  0  0  0  0  0  0  0  0
    1.7337   -3.0805    0.3567 C   0  0  0  0  0  0  0  0  0  0  0  0
    2.8743   -3.6664   -0.2100 C   0  0  0  0  0  0  0  0  0  0  0  0
    0.5435   -3.9353    0.6754 C   0  0  0  0  0  0  0  0  0  0  0  0
   -0.3058   -4.3978   -0.8767 S   0  0  0  0  0  0  0  0  0  0  0  0
   -1.0201   -5.9563   -0.2455 C   0  0  0  0  0  0  0  0  0  0  0  0
   -2.0940   -6.5028   -1.2002 C   0  0  1  0  0  0  0  0  0  0  0  0
   -1.4979   -6.8678   -2.5397 C   0  0  0  0  0  0  0  0  0  0  0  0
   -0.6555   -8.0136   -2.6742 N   0  0  0  0  0  0  0  0  0  0  0  0
   -1.7319   -6.1448   -3.5408 O   0  0  0  0  0  0  0  0  0  0  0  0
   -2.7462   -7.6687   -0.5998 N   0  0  0  0  0  0  0  0  0  0  0  0
   -4.0575   -8.0854   -0.9834 C   0  0  0  0  0  0  0  0  0  0  0  0
   -4.3799   -8.1275   -2.2064 O   0  0  0  0  0  0  0  0  0  0  0  0
   -5.0873   -8.4114    0.0629 C   0  0  1  0  0  0  0  0  0  0  0  0
   -4.6335   -9.5596    0.9707 C   0  0  0  0  0  0  0  0  0  0  0  0
   -5.3371   -7.2087    0.8668 N   0  0  0  0  0  0  0  0  0  0  0  0
   -6.4138   -6.2794    0.6642 C   0  0  0  0  0  0  0  0  0  0  0  0
   -6.4765   -5.2658    1.4147 O   0  0  0  0  0  0  0  0  0  0  0  0
   -7.4952   -6.4870   -0.3722 C   0  0  1  0  0  0  0  0  0  0  0  0
   -8.6019   -7.3690    0.2354 C   0  0  0  0  0  0  0  0  0  0  0  0
   -7.9895   -5.1801   -0.8323 N   0  0  0  0  0  0  0  0  0  0  0  0
   -9.3718   -4.8365   -1.0016 C   0  0  0  0  0  0  0  0  0  0  0  0
  -10.1348   -5.5875   -1.6745 O   0  0  0  0  0  0  0  0  0  0  0  0
   -9.9288   -3.5895   -0.3744 C   0  0  1  0  0  0  0  0  0  0  0  0
   -9.9177   -3.7189    1.1481 C   0  0  0  0  0  0  0  0  0  0  0  0
   -9.1583   -2.4173   -0.7854 N   0  0  0  0  0  0  0  0  0  0  0  0
   -9.7520   -1.3635   -1.5513 C   0  0  0  0  0  0  0  0  0  0  0  0
   -9.8244   -1.4712   -2.8027 O   0  0  0  0  0  0  0  0  0  0  0  0
  -10.3894   -0.1793   -0.8669 C   0  0  1  0  0  0  0  0  0  0  0  0
  -11.8121   -0.5458   -0.4388 C   0  0  0  0  0  0  0  0  0  0  0  0
   -9.5986    0.2200    0.3055 N   0  0  0  0  0  0  0  0  0  0  0  0
   -9.0573    1.5283    0.5635 C   0  0  0  0  0  0  0  0  0  0  0  0
   -8.4010    1.6980    1.6299 O   0  0  0  0  0  0  0  0  0  0  0  0
   -9.2911    2.7215   -0.3472 C   0  0  1  0  0  0  0  0  0  0  0  0
  -10.7176    3.2492   -0.1253 C   0  0  0  0  0  0  0  0  0  0  0  0
   -8.2665    3.7575   -0.1044 N   0  0  0  0  0  0  0  0  0  0  0  0
   -8.5033    5.1771   -0.1210 C   0  0  0  0  0  0  0  0  0  0  0  0
   -9.3100    5.6693   -0.9556 O   0  0  0  0  0  0  0  0  0  0  0  0
   -7.7477    6.1010    0.7999 C   0  0  1  0  0  0  0  0  0  0  0  0
   -7.6121    5.4684    2.1974 C   0  0  0  0  0  0  0  0  0  0  0  0
   -6.4656    6.4692    0.1694 N   0  0  0  0  0  0  0  0  0  0  0  0
   -5.1674    6.4733    0.7986 C   0  0  0  0  0  0  0  0  0  0  0  0
   -5.0578    6.6227    2.0424 O   0  0  0  0  0  0  0  0  0  0  0  0
   -3.9143    6.3220   -0.0256 C   0  0  1  0  0  0  0  0  0  0  0  0
   -4.0613    5.2352   -1.0962 C   0  0  0  0  0  0  0  0  0  0  0  0
   -3.5432    7.5988   -0.6439 N   0  0  0  0  0  0  0  0  0  0  0  0
   -2.1913    8.0746   -0.7865 C   0  0  0  0  0  0  0  0  0  0  0  0
   -2.0075    9.2926   -1.0638 O   0  0  0  0  0  0  0  0  0  0  0  0
   -0.9798    7.1835   -0.5905 C   0  0  1  0  0  0  0  0  0  0  0  0
   -0.0126    7.3344   -1.7726 C   0  0  0  0  0  0  0  0  0  0  0  0
   -0.2996    7.5164    0.6637 N   0  0  0  0  0  0  0  0  0  0  0  0
    0.8188    6.7675    1.1705 C   0  0  0  0  0  0  0  0  0  0  0  0
    1.8939    7.3831    1.4100 O   0  0  0  0  0  0  0  0  0  0  0  0
    0.7473    5.2874    1.4641 C   0  0  1  0  0  0  0  0  0  0  0  0
   -0.5033    4.9171    2.2627 C   0  0  0  0  0  0  0  0  0  0  0  0
    0.8275    4.5028    0.2240 N   0  0  0  0  0  0  0  0  0  0  0  0
    2.0287    3.9055   -0.3052 C   0  0  0  0  0  0  0  0  0  0  0  0
    1.9654    3.3357   -1.4309 O   0  0  0  0  0  0  0  0  0  0  0  0
    3.3470    3.9334    0.4423 C   0  0  1  0  0  0  0  0  0  0  0  0
    3.3737    2.9085    1.6015 C   0  0  0  0  0  0  0  0  0  0  0  0
    4.1122    1.2803    1.2065 S   0  0  0  0  0  0  0  0  0  0  0  0
    2.6981    0.6131    0.2574 C   0  0  0  0  0  0  0  0  0  0  0  0
    4.4765    3.7624   -0.4768 N   0  0  0  0  0  0  0  0  0  0  0  0
    5.3590    4.8395   -0.8451 C   0  0  0  0  0  0  0  0  0  0  0  0
    5.5826    5.0460   -2.0681 O   0  0  0  0  0  0  0  0  0  0  0  0
    6.0954    5.6704    0.1782 C   0  0  1  0  0  0  0  0  0  0  0  0
    5.3239    6.9365    0.5721 C   0  0  0  0  0  0  0  0  0  0  0  0
    6.4325    4.8600    1.3523 N   0  0  0  0  0  0  0  0  0  0  0  0
    7.4614    3.8530    1.3528 C   0  0  0  0  0  0  0  0  0  0  0  0
    7.5107    3.0317    2.3085 O   0  0  0  0  0  0  0  0  0  0  0  0
    8.5373    3.8165    0.2904 C   0  0  1  0  0  0  0  0  0  0  0  0
    9.6506    4.8015    0.6579 C   0  0  0  0  0  0  0  0  0  0  0  0
    9.0826    2.4665    0.1414 N   0  0  0  0  0  0  0  0  0  0  0  0
    8.4546    1.5144   -0.7292 C   0  0  0  0  0  0  0  0  0  0  0  0
    7.2000    1.3837   -0.7124 O   0  0  0  0  0  0  0  0  0  0  0  0
    9.2526    0.8123   -1.7959 C   0  0  1  0  0  0  0  0  0  0  0  0
    9.3430    1.7074   -3.0353 C   0  0  0  0  0  0  0  0  0  0  0  0
   10.6007    0.4942   -1.3094 N   0  0  0  0  0  0  0  0  0  0  0  0
   10.9384   -0.6602   -0.5227 C   0  0  0  0  0  0  0  0  0  0  0  0
   12.0678   -0.6900    0.0399 O   0  0  0  0  0  0  0  0  0  0  0  0
   10.0405   -1.8759   -0.4468 C   0  0  1  0  0  0  0  0  0  0  0  0
   10.2852   -2.7655   -1.6691 C   0  0  0  0  0  0  0  0  0  0  0  0
   10.2843   -2.6362    0.7857 N   0  0  0  0  0  0  0  0  0  0  0  0
    9.2082   -3.1188    1.5998 C   0  0  0  0  0  0  0  0  0  0  0  0
    9.0870   -2.6972    2.7811 O   0  0  0  0  0  0  0  0  0  0  0  0
    9.9736   -6.7248    0.3044 H   0  0  0  0  0  0  0  0  0  0  0  0
   11.1159   -7.1350    1.6357 H   0  0  0  0  0  0  0  0  0  0  0  0
   10.9222   -5.4191    1.1270 H   0  0  0  0  0  0  0  0  0  0  0  0
    7.3470   -5.3655    2.6512 H   0  0  0  0  0  0  0  0  0  0  0  0
    8.6784   -4.5670    0.1159 H   0  0  0  0  0  0  0  0  0  0  0  0
    6.3280   -3.4018    1.7200 H   0  0  0  0  0  0  0  0  0  0  0  0
    7.0050   -2.6117    0.2682 H   0  0  0  0  0  0  0  0  0  0  0  0
    5.8556   -2.7619   -1.6837 H   0  0  0  0  0  0  0  0  0  0  0  0
    4.7353   -4.0374   -2.2256 H   0  0  0  0  0  0  0  0  0  0  0  0
    4.7217   -0.8644   -0.7887 H   0  0  0  0  0  0  0  0  0  0  0  0
    0.7965   -1.2275    0.9414 H   0  0  0  0  0  0  0  0  0  0  0  0
    2.8998   -4.7385   -0.3756 H   0  0  0  0  0  0  0  0  0  0  0  0
   -0.1749   -3.3899    1.3223 H   0  0  0  0  0  0  0  0  0  0  0  0
    0.8781   -4.8379    1.2263 H   0  0  0  0  0  0  0  0  0  0  0  0
   -1.4880   -5.7593    0.7431 H   0  0  0  0  0  0  0  0  0  0  0  0
   -0.2061   -6.7014   -0.1094 H   0  0  0  0  0  0  0  0  0  0  0  0
   -2.8551   -5.7032   -1.3445 H   0  0  0  0  0  0  0  0  0  0  0  0
   -0.4755   -8.6526   -1.8663 H   0  0  0  0  0  0  0  0  0  0  0  0
   -0.1860   -8.2072   -3.5880 H   0  0  0  0  0  0  0  0  0  0  0  0
   -2.2527   -8.2021    0.1565 H   0  0  0  0  0  0  0  0  0  0  0  0
   -6.0191   -8.7567   -0.4323 H   0  0  0  0  0  0  0  0  0  0  0  0
   -3.7313   -9.2853    1.5570 H   0  0  0  0  0  0  0  0  0  0  0  0
   -5.4491   -9.8105    1.6805 H   0  0  0  0  0  0  0  0  0  0  0  0
   -4.4041  -10.4642    0.3683 H   0  0  0  0  0  0  0  0  0  0  0  0
   -4.5929   -6.9312    1.5508 H   0  0  0  0  0  0  0  0  0  0  0  0
   -7.0662   -7.0004   -1.2558 H   0  0  0  0  0  0  0  0  0  0  0  0
   -9.1321   -6.8265    1.0488 H   0  0  0  0  0  0  0  0  0  0  0  0
   -8.1645   -8.2962    0.6635 H   0  0  0  0  0  0  0  0  0  0  0  0
   -9.3297   -7.6718   -0.5410 H   0  0  0  0  0  0  0  0  0  0  0  0
   -7.2795   -4.4610   -1.1022 H   0  0  0  0  0  0  0  0  0  0  0  0
  -10.9909   -3.4700   -0.6994 H   0  0  0  0  0  0  0  0  0  0  0  0
  -10.3648   -2.8162    1.6168 H   0  0  0  0  0  0  0  0  0  0  0  0
   -8.8798   -3.8382    1.5297 H   0  0  0  0  0  0  0  0  0  0  0  0
  -10.5152   -4.5982    1.4608 H   0  0  0  0  0  0  0  0  0  0  0  0
   -8.1671   -2.3046   -0.4710 H   0  0  0  0  0  0  0  0  0  0  0  0
  -10.4643    0.6486   -1.6006 H   0  0  0  0  0  0  0  0  0  0  0  0
  -12.3124    0.3194    0.0442 H   0  0  0  0  0  0  0  0  0  0  0  0
  -11.8084   -1.3868    0.2807 H   0  0  0  0  0  0  0  0  0  0  0  0
  -12.4162   -0.8371   -1.3261 H   0  0  0  0  0  0  0  0  0  0  0  0
   -9.4444   -0.5019    1.0484 H   0  0  0  0  0  0  0  0  0  0  0  0
   -9.1790    2.3973   -1.4060 H   0  0  0  0  0  0  0  0  0  0  0  0
  -10.7762    3.8172    0.8261 H   0  0  0  0  0  0  0  0  0  0  0  0
  -11.0259    3.8981   -0.9700 H   0  0  0  0  0  0  0  0  0  0  0  0
  -11.4506    2.4215   -0.0810 H   0  0  0  0  0  0  0  0  0  0  0  0
   -7.2968    3.4480    0.1305 H   0  0  0  0  0  0  0  0  0  0  0  0
   -8.3568    7.0266    0.9193 H   0  0  0  0  0  0  0  0  0  0  0  0
   -7.3406    6.2463    2.9424 H   0  0  0  0  0  0  0  0  0  0  0  0
   -6.8527    4.6586    2.2044 H   0  0  0  0  0  0  0  0  0  0  0  0
   -8.5849    5.0349    2.5225 H   0  0  0  0  0  0  0  0  0  0  0  0
   -6.5085    6.7671   -0.8295 H   0  0  0  0  0  0  0  0  0  0  0  0
   -3.1160    6.0026    0.6763 H   0  0  0  0  0  0  0  0  0  0  0  0
   -4.3699    4.2787   -0.6242 H   0  0  0  0  0  0  0  0  0  0  0  0
   -3.0923    5.0706   -1.6144 H   0  0  0  0  0  0  0  0  0  0  0  0
   -4.8119    5.5255   -1.8589 H   0  0  0  0  0  0  0  0  0  0  0  0
   -4.3112    8.2279   -0.9655 H   0  0  0  0  0  0  0  0  0  0  0  0
   -1.2955    6.1313   -0.5679 H   0  0  0  0  0  0  0  0  0  0  0  0
   -0.5530    7.1857   -2.7338 H   0  0  0  0  0  0  0  0  0  0  0  0
    0.7878    6.5696   -1.7118 H   0  0  0  0  0  0  0  0  0  0  0  0
    0.4613    8.3369   -1.7649 H   0  0  0  0  0  0  0  0  0  0  0  0
   -0.3619    8.5109    0.9909 H   0  0  0  0  0  0  0  0  0  0  0  0
    1.5994    5.0378    2.1325 H   0  0  0  0  0  0  0  0  0  0  0  0
   -1.4064    4.9460    1.6259 H   0  0  0  0  0  0  0  0  0  0  0  0
   -0.3985    3.8864    2.6651 H   0  0  0  0  0  0  0  0  0  0  0  0
   -0.6407    5.6146    3.1174 H   0  0  0  0  0  0  0  0  0  0  0  0
   -0.0519    4.3093   -0.2961 H   0  0  0  0  0  0  0  0  0  0  0  0
    3.4183    4.9357    0.8946 H   0  0  0  0  0  0  0  0  0  0  0  0
    2.3660    2.7681    2.0428 H   0  0  0  0  0  0  0  0  0  0  0  0
    3.9980    3.3316    2.4184 H   0  0  0  0  0  0  0  0  0  0  0  0
    2.7337    1.0281   -0.7650 H   0  0  0  0  0  0  0  0  0  0  0  0
    1.7387    0.9204    0.7261 H   0  0  0  0  0  0  0  0  0  0  0  0
    4.4839    2.9203   -1.0961 H   0  0  0  0  0  0  0  0  0  0  0  0
    7.0337    6.0400   -0.2894 H   0  0  0  0  0  0  0  0  0  0  0  0
    4.5222    6.7314    1.3055 H   0  0  0  0  0  0  0  0  0  0  0  0
    4.8776    7.4184   -0.3266 H   0  0  0  0  0  0  0  0  0  0  0  0
    6.0203    7.6619    1.0431 H   0  0  0  0  0  0  0  0  0  0  0  0
    5.8344    4.9359    2.2045 H   0  0  0  0  0  0  0  0  0  0  0  0
    8.1253    4.1286   -0.6914 H   0  0  0  0  0  0  0  0  0  0  0  0
   10.0974    4.5425    1.6429 H   0  0  0  0  0  0  0  0  0  0  0  0
    9.2501    5.8382    0.7053 H   0  0  0  0  0  0  0  0  0  0  0  0
   10.4499    4.7783   -0.1167 H   0  0  0  0  0  0  0  0  0  0  0  0
   10.0575    2.2746    0.4654 H   0  0  0  0  0  0  0  0  0  0  0  0
    8.7292   -0.1152   -2.1099 H   0  0  0  0  0  0  0  0  0  0  0  0
    9.8480    2.6682   -2.7927 H   0  0  0  0  0  0  0  0  0  0  0  0
    8.3264    1.9262   -3.4263 H   0  0  0  0  0  0  0  0  0  0  0  0
    9.9210    1.1901   -3.8318 H   0  0  0  0  0  0  0  0  0  0  0  0
   11.3400    1.2287   -1.4087 H   0  0  0  0  0  0  0  0  0  0  0  0
    8.9837   -1.5437   -0.4537 H   0  0  0  0  0  0  0  0  0  0  0  0
   10.2167   -2.1640   -2.6002 H   0  0  0  0  0  0  0  0  0  0  0  0
   11.2901   -3.2336   -1.6154 H   0  0  0  0  0  0  0  0  0  0  0  0
    9.5194   -3.5595   -1.7246 H   0  0  0  0  0  0  0  0  0  0  0  0
   11.2628   -2.8216    1.1063 H   0  0  0  0  0  0  0  0  0  0  0  0
  1  2  1  0
  2  3  2  0
  2  4  1  0
  4  5  1  0
  5  6  1  0
  6  7  1  0
  7  8  1  0
  8  9  1  0
  9 10  2  0
 10 11  1  0
 11 12  2  0
 12 13  1  0
 13 14  2  0
 13 15  1  0
 15 16  1  0
 16 17  1  0
 17 18  1  0
 18 19  1  0
 19 20  1  0
 19 21  2  0
 18 22  1  0
 22 23  1  0
 23 24  2  0
 23 25  1  0
 25 26  1  0
 25 27  1  0
 27 28  1  0
 28 29  2  0
 28 30  1  0
 30 31  1  0
 30 32  1  0
 32 33  1  0
 33 34  2  0
 33 35  1  0
 35 36  1  0
 35 37  1  0
 37 38  1  0
 38 39  2  0
 38 40  1  0
 40 41  1  0
 40 42  1  0
 42 43  1  0
 43 44  2  0
 43 45  1  0
 45 46  1  0
 45 47  1  0
 47 48  1  0
 48 49  2  0
 48 50  1  0
 50 51  1  0
 50 52  1  0
 52 53  1  0
 53 54  2  0
 53 55  1  0
 55 56  1  0
 55 57  1  0
 57 58  1  0
 58 59  2  0
 58 60  1  0
 60 61  1  0
 60 62  1  0
 62 63  1  0
 63 64  2  0
 63 65  1  0
 65 66  1  0
 65 67  1  0
 67 68  1  0
 68 69  2  0
 68 70  1  0
 70 71  1  0
 71 72  1  0
 72 73  1  0
 70 74  1  0
 74 75  1  0
 75 76  2  0
 75 77  1  0
 77 78  1  0
 77 79  1  0
 79 80  1  0
 80 81  2  0
 80 82  1  0
 82 83  1  0
 82 84  1  0
 84 85  1  0
 85 86  2  0
 85 87  1  0
 87 88  1  0
 87 89  1  0
 89 90  1  0
 90 91  2  0
 90 92  1  0
 92 93  1  0
 92 94  1  0
 94 95  1  0
 95 96  2  0
 95  5  1  0
 14  9  1  0
 73 11  1  0
  1 97  1  0
  1 98  1  0
  1 99  1  0
  4100  1  0
  5101  1  6
  6102  1  0
  6103  1  0
  8104  1  0
  8105  1  0
 10106  1  0
 12107  1  0
 14108  1  0
 15109  1  0
 15110  1  0
 17111  1  0
 17112  1  0
 18113  1  6
 20114  1  0
 20115  1  0
 22116  1  0
 25117  1  6
 26118  1  0
 26119  1  0
 26120  1  0
 27121  1  0
 30122  1  6
 31123  1  0
 31124  1  0
 31125  1  0
 32126  1  0
 35127  1  6
 36128  1  0
 36129  1  0
 36130  1  0
 37131  1  0
 40132  1  6
 41133  1  0
 41134  1  0
 41135  1  0
 42136  1  0
 45137  1  6
 46138  1  0
 46139  1  0
 46140  1  0
 47141  1  0
 50142  1  1
 51143  1  0
 51144  1  0
 51145  1  0
 52146  1  0
 55147  1  1
 56148  1  0
 56149  1  0
 56150  1  0
 57151  1  0
 60152  1  1
 61153  1  0
 61154  1  0
 61155  1  0
 62156  1  0
 65157  1  1
 66158  1  0
 66159  1  0
 66160  1  0
 67161  1  0
 70162  1  1
 71163  1  0
 71164  1  0
 73165  1  0
 73166  1  0
 74167  1  0
 77168  1  6
 78169  1  0
 78170  1  0
 78171  1  0
 79172  1  0
 82173  1  6
 83174  1  0
 83175  1  0
 83176  1  0
 84177  1  0
 87178  1  6
 88179  1  0
 88180  1  0
 88181  1  0
 89182  1  0
 92183  1  1
 93184  1  0
 93185  1  0
 93186  1  0
 94187  1  0
M  END
