
     RDKit          3D

187189  0  0  0  0  0  0  0  0999 V2000
  -10.0342   -7.9040   -1.3797 C   0  0  0  0  0  0  0  0  0  0  0  0
   -9.9470   -6.4281   -1.1537 C   0  0  0  0  0  0  0  0  0  0  0  0
  -10.3805   -5.6393   -2.0432 O   0  0  0  0  0  0  0  0  0  0  0  0
   -9.3776   -5.9043    0.0531 N   0  0  0  0  0  0  0  0  0  0  0  0
   -8.9028   -4.5237    0.1399 C   0  0  2  0  0  0  0  0  0  0  0  0
   -7.6258   -4.4479    1.0053 C   0  0  0  0  0  0  0  0  0  0  0  0
   -6.9650   -2.7381    1.1060 S   0  0  0  0  0  0  0  0  0  0  0  0
   -6.1526   -2.7077   -0.5339 C   0  0  0  0  0  0  0  0  0  0  0  0
   -4.6657   -2.8472   -0.3714 C   0  0  0  0  0  0  0  0  0  0  0  0
   -4.0289   -4.0773   -0.5971 C   0  0  0  0  0  0  0  0  0  0  0  0
   -2.6382   -4.1890   -0.4772 C   0  0  0  0  0  0  0  0  0  0  0  0
   -1.8753   -3.0439   -0.1940 C   0  0  0  0  0  0  0  0  0  0  0  0
   -2.4978   -1.8022    0.0109 C   0  0  0  0  0  0  0  0  0  0  0  0
   -3.8977   -1.7259   -0.0186 C   0  0  0  0  0  0  0  0  0  0  0  0
   -1.6755   -0.6079    0.3964 C   0  0  0  0  0  0  0  0  0  0  0  0
   -2.1649    0.8803   -0.5595 S   0  0  0  0  0  0  0  0  0  0  0  0
   -2.7320    1.9169    0.8499 C   0  0  0  0  0  0  0  0  0  0  0  0
   -2.2760    3.3868    0.6789 C   0  0  1  0  0  0  0  0  0  0  0  0
   -2.8598    4.2269    1.7390 N   0  0  0  0  0  0  0  0  0  0  0  0
   -4.1724    4.8227    1.7268 C   0  0  0  0  0  0  0  0  0  0  0  0
   -4.3869    5.8129    2.4780 O   0  0  0  0  0  0  0  0  0  0  0  0
   -5.3269    4.2178    0.9658 C   0  0  1  0  0  0  0  0  0  0  0  0
   -6.0922    3.2785    1.9110 C   0  0  0  0  0  0  0  0  0  0  0  0
   -6.2382    5.2467    0.4571 N   0  0  0  0  0  0  0  0  0  0  0  0
   -7.3699    4.9077   -0.3532 C   0  0  0  0  0  0  0  0  0  0  0  0
   -7.2783    3.9671   -1.1865 O   0  0  0  0  0  0  0  0  0  0  0  0
   -8.7029    5.5635   -0.1132 C   0  0  1  0  0  0  0  0  0  0  0  0
   -9.3913    5.9762   -1.4181 C   0  0  0  0  0  0  0  0  0  0  0  0
   -9.5306    4.6683    0.7109 N   0  0  0  0  0  0  0  0  0  0  0  0
  -10.2500    3.5476    0.1651 C   0  0  0  0  0  0  0  0  0  0  0  0
  -11.2402    3.7595   -0.5842 O   0  0  0  0  0  0  0  0  0  0  0  0
   -9.7953    2.1327    0.4741 C   0  0  1  0  0  0  0  0  0  0  0  0
   -9.8907    1.8280    1.9761 C   0  0  0  0  0  0  0  0  0  0  0  0
  -10.5515    1.1241   -0.2738 N   0  0  0  0  0  0  0  0  0  0  0  0
  -10.1276   -0.2426   -0.2934 C   0  0  0  0  0  0  0  0  0  0  0  0
   -9.0019   -0.5226   -0.7927 O   0  0  0  0  0  0  0  0  0  0  0  0
  -10.9374   -1.3111    0.3982 C   0  0  1  0  0  0  0  0  0  0  0  0
  -12.4456   -1.0859    0.2309 C   0  0  0  0  0  0  0  0  0  0  0  0
  -10.5708   -2.6273   -0.1254 N   0  0  0  0  0  0  0  0  0  0  0  0
   -9.9924   -3.6440    0.6934 C   0  0  0  0  0  0  0  0  0  0  0  0
  -10.4072   -3.8221    1.8750 O   0  0  0  0  0  0  0  0  0  0  0  0
   -0.7614    3.4975    0.7505 C   0  0  0  0  0  0  0  0  0  0  0  0
   -0.0525    2.4738    0.9554 O   0  0  0  0  0  0  0  0  0  0  0  0
   -0.1195    4.7807    0.7591 N   0  0  0  0  0  0  0  0  0  0  0  0
   -0.0685    5.7130   -0.3735 C   0  0  2  0  0  0  0  0  0  0  0  0
   -1.2945    6.6360   -0.3507 C   0  0  0  0  0  0  0  0  0  0  0  0
    0.0746    4.9972   -1.7008 C   0  0  0  0  0  0  0  0  0  0  0  0
   -0.9520    4.4891   -2.2345 O   0  0  0  0  0  0  0  0  0  0  0  0
    1.3260    4.9044   -2.4088 N   0  0  0  0  0  0  0  0  0  0  0  0
    2.6666    4.7846   -1.8185 C   0  0  2  0  0  0  0  0  0  0  0  0
    2.6941    3.8217   -0.6208 C   0  0  0  0  0  0  0  0  0  0  0  0
    3.2653    6.1329   -1.4895 C   0  0  0  0  0  0  0  0  0  0  0  0
    2.6741    7.1871   -1.8385 O   0  0  0  0  0  0  0  0  0  0  0  0
    4.5576    6.2112   -0.8647 N   0  0  0  0  0  0  0  0  0  0  0  0
    5.4291    7.3824   -1.0179 C   0  0  2  0  0  0  0  0  0  0  0  0
    6.1842    7.2796   -2.3483 C   0  0  0  0  0  0  0  0  0  0  0  0
    6.3614    7.4718    0.1663 C   0  0  0  0  0  0  0  0  0  0  0  0
    5.8801    7.6052    1.3267 O   0  0  0  0  0  0  0  0  0  0  0  0
    7.7839    7.4315   -0.0003 N   0  0  0  0  0  0  0  0  0  0  0  0
    8.5876    6.3416    0.5633 C   0  0  2  0  0  0  0  0  0  0  0  0
    9.2235    6.7932    1.8839 C   0  0  0  0  0  0  0  0  0  0  0  0
    9.6562    5.9202   -0.4223 C   0  0  0  0  0  0  0  0  0  0  0  0
   10.2435    6.8017   -1.1035 O   0  0  0  0  0  0  0  0  0  0  0  0
   10.0079    4.5420   -0.6207 N   0  0  0  0  0  0  0  0  0  0  0  0
    9.9977    3.5335    0.4451 C   0  0  2  0  0  0  0  0  0  0  0  0
   11.3907    3.4604    1.0793 C   0  0  0  0  0  0  0  0  0  0  0  0
    9.5357    2.2144   -0.1288 C   0  0  0  0  0  0  0  0  0  0  0  0
    8.4150    2.1554   -0.6975 O   0  0  0  0  0  0  0  0  0  0  0  0
   10.3433    1.0349   -0.0525 N   0  0  0  0  0  0  0  0  0  0  0  0
   10.2468    0.1106    1.0778 C   0  0  2  0  0  0  0  0  0  0  0  0
   11.4781   -0.8031    1.1319 C   0  0  0  0  0  0  0  0  0  0  0  0
    8.9082   -0.6101    1.0722 C   0  0  0  0  0  0  0  0  0  0  0  0
    7.8827    0.0590    1.3724 O   0  0  0  0  0  0  0  0  0  0  0  0
    8.7466   -2.0222    0.8381 N   0  0  0  0  0  0  0  0  0  0  0  0
    9.2849   -2.7570   -0.3183 C   0  0  2  0  0  0  0  0  0  0  0  0
    8.9926   -2.0288   -1.6358 C   0  0  0  0  0  0  0  0  0  0  0  0
    8.7045   -4.1516   -0.3517 C   0  0  0  0  0  0  0  0  0  0  0  0
    9.4607   -5.1388   -0.1488 O   0  0  0  0  0  0  0  0  0  0  0  0
    7.2979   -4.3659   -0.5664 N   0  0  0  0  0  0  0  0  0  0  0  0
    6.7155   -5.7085   -0.6625 C   0  0  2  0  0  0  0  0  0  0  0  0
    7.1310   -6.3879   -1.9705 C   0  0  0  0  0  0  0  0  0  0  0  0
    5.2122   -5.6376   -0.5770 C   0  0  0  0  0  0  0  0  0  0  0  0
    4.5538   -5.0303   -1.4665 O   0  0  0  0  0  0  0  0  0  0  0  0
    4.5227   -6.2510    0.5210 N   0  0  0  0  0  0  0  0  0  0  0  0
    3.7769   -7.5122    0.3991 C   0  0  2  0  0  0  0  0  0  0  0  0
    4.7034   -8.6895    0.7099 C   0  0  0  0  0  0  0  0  0  0  0  0
    3.1419   -7.6899   -0.9701 C   0  0  0  0  0  0  0  0  0  0  0  0
    3.9046   -7.8625   -1.9677 O   0  0  0  0  0  0  0  0  0  0  0  0
    1.7228   -7.7331   -1.2047 N   0  0  0  0  0  0  0  0  0  0  0  0
    0.6424   -7.6850   -0.2064 C   0  0  1  0  0  0  0  0  0  0  0  0
    0.7898   -8.7610    0.8461 C   0  0  0  0  0  0  0  0  0  0  0  0
    1.0899  -10.1045    0.4691 N   0  0  0  0  0  0  0  0  0  0  0  0
    0.6344   -8.4892    2.0650 O   0  0  0  0  0  0  0  0  0  0  0  0
    0.5092   -6.2594    0.3767 C   0  0  0  0  0  0  0  0  0  0  0  0
   -1.1854   -5.9621    1.0017 S   0  0  0  0  0  0  0  0  0  0  0  0
   -1.9546   -5.5251   -0.6047 C   0  0  0  0  0  0  0  0  0  0  0  0
   -9.3990   -8.1766   -2.2485 H   0  0  0  0  0  0  0  0  0  0  0  0
  -11.0829   -8.1939   -1.5917 H   0  0  0  0  0  0  0  0  0  0  0  0
   -9.6755   -8.4649   -0.4896 H   0  0  0  0  0  0  0  0  0  0  0  0
   -9.1892   -6.5612    0.8485 H   0  0  0  0  0  0  0  0  0  0  0  0
   -8.6437   -4.1643   -0.8797 H   0  0  0  0  0  0  0  0  0  0  0  0
   -6.8515   -5.1329    0.6032 H   0  0  0  0  0  0  0  0  0  0  0  0
   -7.8567   -4.7720    2.0401 H   0  0  0  0  0  0  0  0  0  0  0  0
   -6.5342   -3.5004   -1.2131 H   0  0  0  0  0  0  0  0  0  0  0  0
   -6.3728   -1.7397   -1.0272 H   0  0  0  0  0  0  0  0  0  0  0  0
   -4.6180   -4.9517   -0.8457 H   0  0  0  0  0  0  0  0  0  0  0  0
   -0.7978   -3.1290   -0.0975 H   0  0  0  0  0  0  0  0  0  0  0  0
   -4.3940   -0.7934    0.2158 H   0  0  0  0  0  0  0  0  0  0  0  0
   -0.6053   -0.7966    0.1625 H   0  0  0  0  0  0  0  0  0  0  0  0
   -1.7563   -0.4749    1.4895 H   0  0  0  0  0  0  0  0  0  0  0  0
   -2.3587    1.5515    1.8279 H   0  0  0  0  0  0  0  0  0  0  0  0
   -3.8339    1.8341    0.8756 H   0  0  0  0  0  0  0  0  0  0  0  0
   -2.6187    3.7594   -0.3051 H   0  0  0  0  0  0  0  0  0  0  0  0
   -2.2259    4.5473    2.5045 H   0  0  0  0  0  0  0  0  0  0  0  0
   -4.9514    3.6362    0.1005 H   0  0  0  0  0  0  0  0  0  0  0  0
   -5.4067    2.5552    2.4004 H   0  0  0  0  0  0  0  0  0  0  0  0
   -6.6075    3.8691    2.7008 H   0  0  0  0  0  0  0  0  0  0  0  0
   -6.8478    2.6996    1.3481 H   0  0  0  0  0  0  0  0  0  0  0  0
   -6.0774    6.2625    0.6683 H   0  0  0  0  0  0  0  0  0  0  0  0
   -8.5314    6.4960    0.4752 H   0  0  0  0  0  0  0  0  0  0  0  0
   -8.7933    6.7693   -1.9270 H   0  0  0  0  0  0  0  0  0  0  0  0
   -9.4864    5.1093   -2.1046 H   0  0  0  0  0  0  0  0  0  0  0  0
  -10.4021    6.3880   -1.2072 H   0  0  0  0  0  0  0  0  0  0  0  0
   -9.2967    4.6475    1.7288 H   0  0  0  0  0  0  0  0  0  0  0  0
   -8.7300    2.0541    0.1763 H   0  0  0  0  0  0  0  0  0  0  0  0
   -9.3713    2.5955    2.5813 H   0  0  0  0  0  0  0  0  0  0  0  0
   -9.3928    0.8572    2.1965 H   0  0  0  0  0  0  0  0  0  0  0  0
  -10.9515    1.7523    2.3054 H   0  0  0  0  0  0  0  0  0  0  0  0
  -11.3973    1.3768   -0.8411 H   0  0  0  0  0  0  0  0  0  0  0  0
  -10.6928   -1.2553    1.4857 H   0  0  0  0  0  0  0  0  0  0  0  0
  -12.7441   -0.0879    0.6279 H   0  0  0  0  0  0  0  0  0  0  0  0
  -13.0047   -1.8577    0.8000 H   0  0  0  0  0  0  0  0  0  0  0  0
  -12.7337   -1.1551   -0.8421 H   0  0  0  0  0  0  0  0  0  0  0  0
  -10.7004   -2.8141   -1.1526 H   0  0  0  0  0  0  0  0  0  0  0  0
    0.5587    4.9498    1.5384 H   0  0  0  0  0  0  0  0  0  0  0  0
    0.8192    6.3733   -0.2323 H   0  0  0  0  0  0  0  0  0  0  0  0
   -1.1690    7.4528   -1.0964 H   0  0  0  0  0  0  0  0  0  0  0  0
   -1.3925    7.1060    0.6524 H   0  0  0  0  0  0  0  0  0  0  0  0
   -2.2295    6.0834   -0.5875 H   0  0  0  0  0  0  0  0  0  0  0  0
    1.2609    4.6637   -3.4243 H   0  0  0  0  0  0  0  0  0  0  0  0
    3.3359    4.3409   -2.5900 H   0  0  0  0  0  0  0  0  0  0  0  0
    1.9817    2.9851   -0.7803 H   0  0  0  0  0  0  0  0  0  0  0  0
    2.4446    4.3500    0.3201 H   0  0  0  0  0  0  0  0  0  0  0  0
    3.7093    3.3813   -0.5045 H   0  0  0  0  0  0  0  0  0  0  0  0
    5.0231    5.3148   -0.5842 H   0  0  0  0  0  0  0  0  0  0  0  0
    4.8180    8.3112   -1.0314 H   0  0  0  0  0  0  0  0  0  0  0  0
    6.7701    6.3322   -2.3794 H   0  0  0  0  0  0  0  0  0  0  0  0
    6.8777    8.1429   -2.4783 H   0  0  0  0  0  0  0  0  0  0  0  0
    5.4651    7.2793   -3.1959 H   0  0  0  0  0  0  0  0  0  0  0  0
    8.2648    8.2903   -0.3654 H   0  0  0  0  0  0  0  0  0  0  0  0
    7.9133    5.4789    0.7696 H   0  0  0  0  0  0  0  0  0  0  0  0
    9.8083    5.9650    2.3368 H   0  0  0  0  0  0  0  0  0  0  0  0
    8.4320    7.0915    2.6023 H   0  0  0  0  0  0  0  0  0  0  0  0
    9.8971    7.6615    1.7158 H   0  0  0  0  0  0  0  0  0  0  0  0
   10.5788    4.3192   -1.4668 H   0  0  0  0  0  0  0  0  0  0  0  0
    9.2780    3.8079    1.2420 H   0  0  0  0  0  0  0  0  0  0  0  0
   11.6915    4.4662    1.4406 H   0  0  0  0  0  0  0  0  0  0  0  0
   12.1437    3.1142    0.3380 H   0  0  0  0  0  0  0  0  0  0  0  0
   11.3884    2.7735    1.9544 H   0  0  0  0  0  0  0  0  0  0  0  0
   11.0016    0.8449   -0.8456 H   0  0  0  0  0  0  0  0  0  0  0  0
   10.2766    0.7004    2.0232 H   0  0  0  0  0  0  0  0  0  0  0  0
   11.7274   -1.2037    0.1289 H   0  0  0  0  0  0  0  0  0  0  0  0
   11.3276   -1.6307    1.8574 H   0  0  0  0  0  0  0  0  0  0  0  0
   12.3567   -0.2044    1.4612 H   0  0  0  0  0  0  0  0  0  0  0  0
    8.0105   -2.4896    1.4168 H   0  0  0  0  0  0  0  0  0  0  0  0
   10.3795   -2.8650   -0.2089 H   0  0  0  0  0  0  0  0  0  0  0  0
    9.3475   -2.6358   -2.4929 H   0  0  0  0  0  0  0  0  0  0  0  0
    9.5193   -1.0530   -1.6701 H   0  0  0  0  0  0  0  0  0  0  0  0
    7.9000   -1.8413   -1.7458 H   0  0  0  0  0  0  0  0  0  0  0  0
    6.6773   -3.5339   -0.6633 H   0  0  0  0  0  0  0  0  0  0  0  0
    7.0843   -6.3200    0.1928 H   0  0  0  0  0  0  0  0  0  0  0  0
    8.2368   -6.4662   -2.0363 H   0  0  0  0  0  0  0  0  0  0  0  0
    6.7094   -7.4112   -2.0269 H   0  0  0  0  0  0  0  0  0  0  0  0
    6.7699   -5.8029   -2.8415 H   0  0  0  0  0  0  0  0  0  0  0  0
    4.9129   -6.0500    1.4693 H   0  0  0  0  0  0  0  0  0  0  0  0
    3.0051   -7.5023    1.1824 H   0  0  0  0  0  0  0  0  0  0  0  0
    5.5431   -8.7304   -0.0184 H   0  0  0  0  0  0  0  0  0  0  0  0
    4.1407   -9.6492    0.6646 H   0  0  0  0  0  0  0  0  0  0  0  0
    5.1326   -8.5803    1.7307 H   0  0  0  0  0  0  0  0  0  0  0  0
    1.4188   -7.8674   -2.1945 H   0  0  0  0  0  0  0  0  0  0  0  0
   -0.3032   -7.9103   -0.7474 H   0  0  0  0  0  0  0  0  0  0  0  0
    1.2347  -10.8326    1.2007 H   0  0  0  0  0  0  0  0  0  0  0  0
    1.2225  -10.3655   -0.5339 H   0  0  0  0  0  0  0  0  0  0  0  0
    0.7709   -5.4952   -0.3888 H   0  0  0  0  0  0  0  0  0  0  0  0
    1.2109   -6.1078    1.2238 H   0  0  0  0  0  0  0  0  0  0  0  0
   -1.2248   -5.4747   -1.4406 H   0  0  0  0  0  0  0  0  0  0  0  0
   -2.6894   -6.3190   -0.8646 H   0  0  0  0  0  0  0  0  0  0  0  0
  1  2  1  0
  2  3  2  0
  2  4  1  0
  4  5  1  0
  5  6  1  0
  6  7  1  0
  7  8  1  0
  8  9  1  0
  9 10  2  0
 10 11  1  0
 11 12  2  0
 12 13  1  0
 13 14  2  0
 13 15  1  0
 15 16  1  0
 16 17  1  0
 17 18  1  0
 18 19  1  0
 19 20  1  0
 20 21  2  0
 20 22  1  0
 22 23  1  0
 22 24  1  0
 24 25  1  0
 25 26  2  0
 25 27  1  0
 27 28  1  0
 27 29  1  0
 29 30  1  0
 30 31  2  0
 30 32  1  0
 32 33  1  0
 32 34  1  0
 34 35  1  0
 35 36  2  0
 35 37  1  0
 37 38  1  0
 37 39  1  0
 39 40  1  0
 40 41  2  0
 18 42  1  0
 42 43  2  0
 42 44  1  0
 44 45  1  0
 45 46  1  0
 45 47  1  0
 47 48  2  0
 47 49  1  0
 49 50  1  0
 50 51  1  0
 50 52  1  0
 52 53  2  0
 52 54  1  0
 54 55  1  0
 55 56  1  0
 55 57  1  0
 57 58  2  0
 57 59  1  0
 59 60  1  0
 60 61  1  0
 60 62  1  0
 62 63  2  0
 62 64  1  0
 64 65  1  0
 65 66  1  0
 65 67  1  0
 67 68  2  0
 67 69  1  0
 69 70  1  0
 70 71  1  0
 70 72  1  0
 72 73  2  0
 72 74  1  0
 74 75  1  0
 75 76  1  0
 75 77  1  0
 77 78  2  0
 77 79  1  0
 79 80  1  0
 80 81  1  0
 80 82  1  0
 82 83  2  0
 82 84  1  0
 84 85  1  0
 85 86  1  0
 85 87  1  0
 87 88  2  0
 87 89  1  0
 89 90  1  0
 90 91  1  0
 91 92  1  0
 91 93  2  0
 90 94  1  0
 94 95  1  0
 95 96  1  0
 40  5  1  0
 14  9  1  0
 96 11  1  0
  1 97  1  0
  1 98  1  0
  1 99  1  0
  4100  1  0
  5101  1  6
  6102  1  0
  6103  1  0
  8104  1  0
  8105  1  0
 10106  1  0
 12107  1  0
 14108  1  0
 15109  1  0
 15110  1  0
 17111  1  0
 17112  1  0
 18113  1  6
 19114  1  0
 22115  1  6
 23116  1  0
 23117  1  0
 23118  1  0
 24119  1  0
 27120  1  1
 28121  1  0
 28122  1  0
 28123  1  0
 29124  1  0
 32125  1  6
 33126  1  0
 33127  1  0
 33128  1  0
 34129  1  0
 37130  1  1
 38131  1  0
 38132  1  0
 38133  1  0
 39134  1  0
 44135  1  0
 45136  1  1
 46137  1  0
 46138  1  0
 46139  1  0
 49140  1  0
 50141  1  6
 51142  1  0
 51143  1  0
 51144  1  0
 54145  1  0
 55146  1  6
 56147  1  0
 56148  1  0
 56149  1  0
 59150  1  0
 60151  1  1
 61152  1  0
 61153  1  0
 61154  1  0
 64155  1  0
 65156  1  1
 66157  1  0
 66158  1  0
 66159  1  0
 69160  1  0
 70161  1  1
 71162  1  0
 71163  1  0
 71164  1  0
 74165  1  0
 75166  1  1
 76167  1  0
 76168  1  0
 76169  1  0
 79170  1  0
 80171  1  1
 81172  1  0
 81173  1  0
 81174  1  0
 84175  1  0
 85176  1  1
 86177  1  0
 86178  1  0
 86179  1  0
 89180  1  0
 90181  1  6
 92182  1  0
 92183  1  0
 94184  1  0
 94185  1  0
 96186  1  0
 96187  1  0
M  END
