
     RDKit          3D

177179  0  0  0  0  0  0  0  0999 V2000
  -10.1331   -7.3379   -0.8725 C   0  0  0  0  0  0  0  0  0  0  0  0
   -9.3925   -6.1311   -0.3858 C   0  0  0  0  0  0  0  0  0  0  0  0
   -9.5323   -5.7598    0.8085 O   0  0  0  0  0  0  0  0  0  0  0  0
   -8.5645   -5.3836   -1.2951 N   0  0  0  0  0  0  0  0  0  0  0  0
   -7.8927   -4.1288   -0.9381 C   0  0  2  0  0  0  0  0  0  0  0  0
   -6.7561   -4.3971    0.0726 C   0  0  0  0  0  0  0  0  0  0  0  0
   -5.5549   -5.6375   -0.5543 S   0  0  0  0  0  0  0  0  0  0  0  0
   -4.6087   -4.5325   -1.6721 C   0  0  0  0  0  0  0  0  0  0  0  0
   -3.5446   -3.7760   -0.9210 C   0  0  0  0  0  0  0  0  0  0  0  0
   -3.7954   -2.4707   -0.4710 C   0  0  0  0  0  0  0  0  0  0  0  0
   -2.8106   -1.7538    0.2265 C   0  0  0  0  0  0  0  0  0  0  0  0
   -1.5380   -2.3253    0.4009 C   0  0  0  0  0  0  0  0  0  0  0  0
   -1.2597   -3.6093   -0.0942 C   0  0  0  0  0  0  0  0  0  0  0  0
   -2.2730   -4.3331   -0.7403 C   0  0  0  0  0  0  0  0  0  0  0  0
    0.1444   -4.1419   -0.0691 C   0  0  0  0  0  0  0  0  0  0  0  0
    0.2440   -5.6883    0.9040 S   0  0  0  0  0  0  0  0  0  0  0  0
    1.6748   -6.3525   -0.0205 C   0  0  0  0  0  0  0  0  0  0  0  0
    2.3483   -7.5357    0.6924 C   0  0  1  0  0  0  0  0  0  0  0  0
    1.3700   -8.6247    1.0587 C   0  0  0  0  0  0  0  0  0  0  0  0
    0.5789   -9.2816    0.0603 N   0  0  0  0  0  0  0  0  0  0  0  0
    1.2547   -8.9794    2.2665 O   0  0  0  0  0  0  0  0  0  0  0  0
    3.4016   -8.0873   -0.1717 N   0  0  0  0  0  0  0  0  0  0  0  0
    4.7093   -7.5095   -0.3345 C   0  0  0  0  0  0  0  0  0  0  0  0
    5.3980   -7.8577   -1.3339 O   0  0  0  0  0  0  0  0  0  0  0  0
    5.3185   -6.5945    0.7053 C   0  0  1  0  0  0  0  0  0  0  0  0
    5.8010   -7.4033    1.9172 C   0  0  0  0  0  0  0  0  0  0  0  0
    6.4065   -5.7724    0.1481 N   0  0  0  0  0  0  0  0  0  0  0  0
    7.7529   -6.2429   -0.0093 C   0  0  0  0  0  0  0  0  0  0  0  0
    7.9764   -7.3896   -0.4784 O   0  0  0  0  0  0  0  0  0  0  0  0
    8.9003   -5.3499    0.3849 C   0  0  1  0  0  0  0  0  0  0  0  0
    9.9701   -6.1210    1.1641 C   0  0  0  0  0  0  0  0  0  0  0  0
    9.4966   -4.7412   -0.8113 N   0  0  0  0  0  0  0  0  0  0  0  0
    9.8092   -3.3429   -0.9289 C   0  0  0  0  0  0  0  0  0  0  0  0
   10.8246   -3.0097   -1.6058 O   0  0  0  0  0  0  0  0  0  0  0  0
    9.0098   -2.2764   -0.2117 C   0  0  1  0  0  0  0  0  0  0  0  0
    9.6768   -1.8896    1.1167 C   0  0  0  0  0  0  0  0  0  0  0  0
    8.8075   -1.0902   -1.0580 N   0  0  0  0  0  0  0  0  0  0  0  0
    9.8271   -0.1128   -1.3003 C   0  0  0  0  0  0  0  0  0  0  0  0
   10.7314   -0.3452   -2.1489 O   0  0  0  0  0  0  0  0  0  0  0  0
    9.7660    1.2255   -0.6099 C   0  0  1  0  0  0  0  0  0  0  0  0
   11.1446    1.6029   -0.0609 C   0  0  0  0  0  0  0  0  0  0  0  0
    9.3044    2.2517   -1.5518 N   0  0  0  0  0  0  0  0  0  0  0  0
    8.8313    3.5385   -1.1238 C   0  0  0  0  0  0  0  0  0  0  0  0
    9.2931    4.5649   -1.6931 O   0  0  0  0  0  0  0  0  0  0  0  0
    7.8262    3.6852    0.0007 C   0  0  1  0  0  0  0  0  0  0  0  0
    8.4668    4.3405    1.2294 C   0  0  0  0  0  0  0  0  0  0  0  0
    6.6296    4.4302   -0.4187 N   0  0  0  0  0  0  0  0  0  0  0  0
    6.6245    5.8386   -0.7020 C   0  0  0  0  0  0  0  0  0  0  0  0
    7.3371    6.2987   -1.6334 O   0  0  0  0  0  0  0  0  0  0  0  0
    5.7090    6.7563    0.0581 C   0  0  1  0  0  0  0  0  0  0  0  0
    6.4831    7.9750    0.5743 C   0  0  0  0  0  0  0  0  0  0  0  0
    4.6199    7.1977   -0.8195 N   0  0  0  0  0  0  0  0  0  0  0  0
    3.2131    7.1043   -0.5272 C   0  0  0  0  0  0  0  0  0  0  0  0
    2.4328    7.9342   -1.0714 O   0  0  0  0  0  0  0  0  0  0  0  0
    2.6103    5.9730    0.2878 C   0  0  1  0  0  0  0  0  0  0  0  0
    1.4860    6.4781    1.1976 C   0  0  0  0  0  0  0  0  0  0  0  0
    2.1441    4.9016   -0.5982 N   0  0  0  0  0  0  0  0  0  0  0  0
    1.1933    5.1118   -1.6490 C   0  0  0  0  0  0  0  0  0  0  0  0
    1.6019    5.2180   -2.8378 O   0  0  0  0  0  0  0  0  0  0  0  0
   -0.2883    5.0697   -1.3688 C   0  0  1  0  0  0  0  0  0  0  0  0
   -0.9815    6.2914   -1.9805 C   0  0  0  0  0  0  0  0  0  0  0  0
   -0.8588    3.8160   -1.8889 N   0  0  0  0  0  0  0  0  0  0  0  0
   -2.2687    3.5607   -1.9969 C   0  0  0  0  0  0  0  0  0  0  0  0
   -2.7548    3.3503   -3.1391 O   0  0  0  0  0  0  0  0  0  0  0  0
   -3.1862    3.4546   -0.7966 C   0  0  1  0  0  0  0  0  0  0  0  0
   -3.6602    2.0100   -0.5723 C   0  0  0  0  0  0  0  0  0  0  0  0
   -2.2476    0.8540   -0.3822 S   0  0  0  0  0  0  0  0  0  0  0  0
   -3.0908   -0.3585    0.7003 C   0  0  0  0  0  0  0  0  0  0  0  0
   -2.5784    3.9593    0.4339 N   0  0  0  0  0  0  0  0  0  0  0  0
   -3.1646    5.0008    1.2248 C   0  0  0  0  0  0  0  0  0  0  0  0
   -2.4072    5.8706    1.7345 O   0  0  0  0  0  0  0  0  0  0  0  0
   -4.6663    5.0722    1.4607 C   0  0  1  0  0  0  0  0  0  0  0  0
   -4.9469    5.5028    2.9075 C   0  0  0  0  0  0  0  0  0  0  0  0
   -5.2728    6.0267    0.5252 N   0  0  0  0  0  0  0  0  0  0  0  0
   -6.6876    6.0924    0.2530 C   0  0  0  0  0  0  0  0  0  0  0  0
   -7.2365    7.2266    0.2083 O   0  0  0  0  0  0  0  0  0  0  0  0
   -7.5405    4.8743   -0.0501 C   0  0  1  0  0  0  0  0  0  0  0  0
   -6.8884    3.9749   -1.1120 C   0  0  0  0  0  0  0  0  0  0  0  0
   -7.8684    4.1357    1.1744 N   0  0  0  0  0  0  0  0  0  0  0  0
   -8.2308    2.7479    1.1991 C   0  0  0  0  0  0  0  0  0  0  0  0
   -7.3654    1.9006    1.5501 O   0  0  0  0  0  0  0  0  0  0  0  0
   -9.6242    2.2683    0.8643 C   0  0  1  0  0  0  0  0  0  0  0  0
  -10.6439    3.4069    0.7436 C   0  0  0  0  0  0  0  0  0  0  0  0
   -9.5974    1.4909   -0.3818 N   0  0  0  0  0  0  0  0  0  0  0  0
   -9.6805    0.0569   -0.4636 C   0  0  0  0  0  0  0  0  0  0  0  0
  -10.0166   -0.4545   -1.5694 O   0  0  0  0  0  0  0  0  0  0  0  0
   -9.4217   -0.8509    0.7214 C   0  0  1  0  0  0  0  0  0  0  0  0
  -10.7295   -1.3237    1.3665 C   0  0  0  0  0  0  0  0  0  0  0  0
   -8.5454   -1.9740    0.3564 N   0  0  0  0  0  0  0  0  0  0  0  0
   -8.9094   -3.0875   -0.4890 C   0  0  0  0  0  0  0  0  0  0  0  0
  -10.0779   -3.1573   -0.9637 O   0  0  0  0  0  0  0  0  0  0  0  0
  -10.8288   -7.0394   -1.6846 H   0  0  0  0  0  0  0  0  0  0  0  0
  -10.7197   -7.7934   -0.0452 H   0  0  0  0  0  0  0  0  0  0  0  0
   -9.4133   -8.0892   -1.2586 H   0  0  0  0  0  0  0  0  0  0  0  0
   -8.4825   -5.7224   -2.2801 H   0  0  0  0  0  0  0  0  0  0  0  0
   -7.4425   -3.7101   -1.8589 H   0  0  0  0  0  0  0  0  0  0  0  0
   -7.1785   -4.7706    1.0309 H   0  0  0  0  0  0  0  0  0  0  0  0
   -6.1962   -3.4759    0.3052 H   0  0  0  0  0  0  0  0  0  0  0  0
   -5.2734   -3.8288   -2.2095 H   0  0  0  0  0  0  0  0  0  0  0  0
   -4.1383   -5.1619   -2.4560 H   0  0  0  0  0  0  0  0  0  0  0  0
   -4.7536   -2.0041   -0.6740 H   0  0  0  0  0  0  0  0  0  0  0  0
   -0.7588   -1.7551    0.8901 H   0  0  0  0  0  0  0  0  0  0  0  0
   -2.0586   -5.3225   -1.1311 H   0  0  0  0  0  0  0  0  0  0  0  0
    0.4680   -4.3141   -1.1188 H   0  0  0  0  0  0  0  0  0  0  0  0
    0.8461   -3.4073    0.3790 H   0  0  0  0  0  0  0  0  0  0  0  0
    1.3378   -6.6574   -1.0331 H   0  0  0  0  0  0  0  0  0  0  0  0
    2.4268   -5.5447   -0.1511 H   0  0  0  0  0  0  0  0  0  0  0  0
    2.7957   -7.1632    1.6386 H   0  0  0  0  0  0  0  0  0  0  0  0
   -0.0261  -10.0905    0.3245 H   0  0  0  0  0  0  0  0  0  0  0  0
    0.5678   -8.9447   -0.9264 H   0  0  0  0  0  0  0  0  0  0  0  0
    3.1356   -8.8401   -0.8495 H   0  0  0  0  0  0  0  0  0  0  0  0
    4.5342   -5.8902    1.0608 H   0  0  0  0  0  0  0  0  0  0  0  0
    6.3161   -6.7373    2.6391 H   0  0  0  0  0  0  0  0  0  0  0  0
    4.9424   -7.8760    2.4338 H   0  0  0  0  0  0  0  0  0  0  0  0
    6.5052   -8.2022    1.6036 H   0  0  0  0  0  0  0  0  0  0  0  0
    6.2525   -4.7397    0.1277 H   0  0  0  0  0  0  0  0  0  0  0  0
    8.5075   -4.5756    1.0709 H   0  0  0  0  0  0  0  0  0  0  0  0
   10.8285   -5.4504    1.3870 H   0  0  0  0  0  0  0  0  0  0  0  0
   10.3349   -6.9946    0.5827 H   0  0  0  0  0  0  0  0  0  0  0  0
    9.5495   -6.4760    2.1293 H   0  0  0  0  0  0  0  0  0  0  0  0
    9.9167   -5.3890   -1.5179 H   0  0  0  0  0  0  0  0  0  0  0  0
    8.0011   -2.6862    0.0133 H   0  0  0  0  0  0  0  0  0  0  0  0
    9.7474   -2.7668    1.7933 H   0  0  0  0  0  0  0  0  0  0  0  0
    9.0772   -1.1083    1.6279 H   0  0  0  0  0  0  0  0  0  0  0  0
   10.7036   -1.5053    0.9462 H   0  0  0  0  0  0  0  0  0  0  0  0
    7.8246   -0.8277   -1.3110 H   0  0  0  0  0  0  0  0  0  0  0  0
    9.0678    1.1394    0.2442 H   0  0  0  0  0  0  0  0  0  0  0  0
   11.5168    0.8129    0.6236 H   0  0  0  0  0  0  0  0  0  0  0  0
   11.8744    1.7402   -0.8895 H   0  0  0  0  0  0  0  0  0  0  0  0
   11.0830    2.5531    0.5070 H   0  0  0  0  0  0  0  0  0  0  0  0
    9.6806    2.2036   -2.5273 H   0  0  0  0  0  0  0  0  0  0  0  0
    7.4857    2.6752    0.3074 H   0  0  0  0  0  0  0  0  0  0  0  0
    8.8801    5.3413    0.9797 H   0  0  0  0  0  0  0  0  0  0  0  0
    7.7070    4.4579    2.0294 H   0  0  0  0  0  0  0  0  0  0  0  0
    9.2868    3.7051    1.6235 H   0  0  0  0  0  0  0  0  0  0  0  0
    5.7055    4.0044   -0.1818 H   0  0  0  0  0  0  0  0  0  0  0  0
    5.3331    6.2264    0.9502 H   0  0  0  0  0  0  0  0  0  0  0  0
    5.8183    8.6018    1.2045 H   0  0  0  0  0  0  0  0  0  0  0  0
    7.3461    7.6455    1.1936 H   0  0  0  0  0  0  0  0  0  0  0  0
    6.8605    8.5902   -0.2704 H   0  0  0  0  0  0  0  0  0  0  0  0
    4.8864    7.7657   -1.6556 H   0  0  0  0  0  0  0  0  0  0  0  0
    3.3641    5.5332    0.9645 H   0  0  0  0  0  0  0  0  0  0  0  0
    1.8995    7.2018    1.9333 H   0  0  0  0  0  0  0  0  0  0  0  0
    0.6899    6.9902    0.6170 H   0  0  0  0  0  0  0  0  0  0  0  0
    1.0347    5.6307    1.7579 H   0  0  0  0  0  0  0  0  0  0  0  0
    2.7593    4.0563   -0.6875 H   0  0  0  0  0  0  0  0  0  0  0  0
   -0.4278    5.1059   -0.2720 H   0  0  0  0  0  0  0  0  0  0  0  0
   -0.5275    7.2248   -1.5823 H   0  0  0  0  0  0  0  0  0  0  0  0
   -0.8902    6.2838   -3.0887 H   0  0  0  0  0  0  0  0  0  0  0  0
   -2.0581    6.3021   -1.6996 H   0  0  0  0  0  0  0  0  0  0  0  0
   -0.2457    3.1926   -2.4605 H   0  0  0  0  0  0  0  0  0  0  0  0
   -4.0726    4.0735   -1.0414 H   0  0  0  0  0  0  0  0  0  0  0  0
   -4.3001    1.9954    0.3338 H   0  0  0  0  0  0  0  0  0  0  0  0
   -4.2808    1.6749   -1.4318 H   0  0  0  0  0  0  0  0  0  0  0  0
   -2.7106   -0.2308    1.7340 H   0  0  0  0  0  0  0  0  0  0  0  0
   -4.1871   -0.1983    0.7349 H   0  0  0  0  0  0  0  0  0  0  0  0
   -1.6759    3.5423    0.7580 H   0  0  0  0  0  0  0  0  0  0  0  0
   -5.1013    4.0622    1.3092 H   0  0  0  0  0  0  0  0  0  0  0  0
   -4.5102    4.7654    3.6158 H   0  0  0  0  0  0  0  0  0  0  0  0
   -6.0354    5.5657    3.0955 H   0  0  0  0  0  0  0  0  0  0  0  0
   -4.5147    6.5048    3.1122 H   0  0  0  0  0  0  0  0  0  0  0  0
   -4.7326    6.9016    0.3349 H   0  0  0  0  0  0  0  0  0  0  0  0
   -8.4902    5.2428   -0.4928 H   0  0  0  0  0  0  0  0  0  0  0  0
   -7.6646    3.3561   -1.6107 H   0  0  0  0  0  0  0  0  0  0  0  0
   -6.1597    3.2845   -0.6493 H   0  0  0  0  0  0  0  0  0  0  0  0
   -6.3872    4.5854   -1.8947 H   0  0  0  0  0  0  0  0  0  0  0  0
   -7.7883    4.6124    2.1017 H   0  0  0  0  0  0  0  0  0  0  0  0
   -9.9765    1.6359    1.7057 H   0  0  0  0  0  0  0  0  0  0  0  0
  -11.6643    2.9822    0.6249 H   0  0  0  0  0  0  0  0  0  0  0  0
  -10.6331    4.0356    1.6614 H   0  0  0  0  0  0  0  0  0  0  0  0
  -10.4315    4.0419   -0.1407 H   0  0  0  0  0  0  0  0  0  0  0  0
   -9.5805    2.0222   -1.2820 H   0  0  0  0  0  0  0  0  0  0  0  0
   -8.8771   -0.2725    1.4931 H   0  0  0  0  0  0  0  0  0  0  0  0
  -11.2709   -0.4549    1.7959 H   0  0  0  0  0  0  0  0  0  0  0  0
  -10.5086   -2.0330    2.1900 H   0  0  0  0  0  0  0  0  0  0  0  0
  -11.3996   -1.8111    0.6299 H   0  0  0  0  0  0  0  0  0  0  0  0
   -7.5819   -1.9257    0.7399 H   0  0  0  0  0  0  0  0  0  0  0  0
  1  2  1  0
  2  3  2  0
  2  4  1  0
  4  5  1  0
  5  6  1  0
  6  7  1  0
  7  8  1  0
  8  9  1  0
  9 10  2  0
 10 11  1  0
 11 12  2  0
 12 13  1  0
 13 14  2  0
 13 15  1  0
 15 16  1  0
 16 17  1  0
 17 18  1  0
 18 19  1  0
 19 20  1  0
 19 21  2  0
 18 22  1  0
 22 23  1  0
 23 24  2  0
 23 25  1  0
 25 26  1  0
 25 27  1  0
 27 28  1  0
 28 29  2  0
 28 30  1  0
 30 31  1  0
 30 32  1  0
 32 33  1  0
 33 34  2  0
 33 35  1  0
 35 36  1  0
 35 37  1  0
 37 38  1  0
 38 39  2  0
 38 40  1  0
 40 41  1  0
 40 42  1  0
 42 43  1  0
 43 44  2  0
 43 45  1  0
 45 46  1  0
 45 47  1  0
 47 48  1  0
 48 49  2  0
 48 50  1  0
 50 51  1  0
 50 52  1  0
 52 53  1  0
 53 54  2  0
 53 55  1  0
 55 56  1  0
 55 57  1  0
 57 58  1  0
 58 59  2  0
 58 60  1  0
 60 61  1  0
 60 62  1  0
 62 63  1  0
 63 64  2  0
 63 65  1  0
 65 66  1  0
 66 67  1  0
 67 68  1  0
 65 69  1  0
 69 70  1  0
 70 71  2  0
 70 72  1  0
 72 73  1  0
 72 74  1  0
 74 75  1  0
 75 76  2  0
 75 77  1  0
 77 78  1  0
 77 79  1  0
 79 80  1  0
 80 81  2  0
 80 82  1  0
 82 83  1  0
 82 84  1  0
 84 85  1  0
 85 86  2  0
 85 87  1  0
 87 88  1  0
 87 89  1  0
 89 90  1  0
 90 91  2  0
 90  5  1  0
 14  9  1  0
 68 11  1  0
  1 92  1  0
  1 93  1  0
  1 94  1  0
  4 95  1  0
  5 96  1  6
  6 97  1  0
  6 98  1  0
  8 99  1  0
  8100  1  0
 10101  1  0
 12102  1  0
 14103  1  0
 15104  1  0
 15105  1  0
 17106  1  0
 17107  1  0
 18108  1  1
 20109  1  0
 20110  1  0
 22111  1  0
 25112  1  1
 26113  1  0
 26114  1  0
 26115  1  0
 27116  1  0
 30117  1  1
 31118  1  0
 31119  1  0
 31120  1  0
 32121  1  0
 35122  1  1
 36123  1  0
 36124  1  0
 36125  1  0
 37126  1  0
 40127  1  1
 41128  1  0
 41129  1  0
 41130  1  0
 42131  1  0
 45132  1  1
 46133  1  0
 46134  1  0
 46135  1  0
 47136  1  0
 50137  1  1
 51138  1  0
 51139  1  0
 51140  1  0
 52141  1  0
 55142  1  1
 56143  1  0
 56144  1  0
 56145  1  0
 57146  1  0
 60147  1  1
 61148  1  0
 61149  1  0
 61150  1  0
 62151  1  0
 65152  1  6
 66153  1  0
 66154  1  0
 68155  1  0
 68156  1  0
 69157  1  0
 72158  1  6
 73159  1  0
 73160  1  0
 73161  1  0
 74162  1  0
 77163  1  6
 78164  1  0
 78165  1  0
 78166  1  0
 79167  1  0
 82168  1  1
 83169  1  0
 83170  1  0
 83171  1  0
 84172  1  0
 87173  1  1
 88174  1  0
 88175  1  0
 88176  1  0
 89177  1  0
M  END
