
     RDKit          3D

197199  0  0  0  0  0  0  0  0999 V2000
  -10.7517   -5.9467    1.1336 C   0  0  0  0  0  0  0  0  0  0  0  0
  -10.2282   -4.8398    0.2779 C   0  0  0  0  0  0  0  0  0  0  0  0
  -10.8093   -4.5485   -0.8022 O   0  0  0  0  0  0  0  0  0  0  0  0
   -9.0465   -4.1350    0.6793 N   0  0  0  0  0  0  0  0  0  0  0  0
   -8.4622   -3.0429   -0.1080 C   0  0  2  0  0  0  0  0  0  0  0  0
   -7.7426   -3.6184   -1.3423 C   0  0  0  0  0  0  0  0  0  0  0  0
   -7.2763   -2.2841   -2.5001 S   0  0  0  0  0  0  0  0  0  0  0  0
   -5.7704   -3.0770   -3.1650 C   0  0  0  0  0  0  0  0  0  0  0  0
   -4.6206   -3.0214   -2.1857 C   0  0  0  0  0  0  0  0  0  0  0  0
   -3.8585   -4.1694   -1.9328 C   0  0  0  0  0  0  0  0  0  0  0  0
   -2.7152   -4.0965   -1.1223 C   0  0  0  0  0  0  0  0  0  0  0  0
   -2.4034   -2.8958   -0.4691 C   0  0  0  0  0  0  0  0  0  0  0  0
   -3.1836   -1.7521   -0.6803 C   0  0  0  0  0  0  0  0  0  0  0  0
   -4.2639   -1.8106   -1.5741 C   0  0  0  0  0  0  0  0  0  0  0  0
   -2.8131   -0.4541   -0.0216 C   0  0  0  0  0  0  0  0  0  0  0  0
   -1.4039    0.2917   -0.9052 S   0  0  0  0  0  0  0  0  0  0  0  0
   -1.8688    2.0504   -0.6590 C   0  0  0  0  0  0  0  0  0  0  0  0
   -2.7414    2.5910   -1.8169 C   0  0  1  0  0  0  0  0  0  0  0  0
   -4.1778    2.5194   -1.4834 N   0  0  0  0  0  0  0  0  0  0  0  0
   -4.9708    3.5431   -0.8526 C   0  0  0  0  0  0  0  0  0  0  0  0
   -4.8537    4.7442   -1.2119 O   0  0  0  0  0  0  0  0  0  0  0  0
   -6.0742    3.2047    0.1296 C   0  0  1  0  0  0  0  0  0  0  0  0
   -5.8460    1.8794    0.8636 C   0  0  0  0  0  0  0  0  0  0  0  0
   -6.1814    4.2780    1.1269 N   0  0  0  0  0  0  0  0  0  0  0  0
   -7.4006    4.9826    1.3857 C   0  0  0  0  0  0  0  0  0  0  0  0
   -7.3562    6.2319    1.5709 O   0  0  0  0  0  0  0  0  0  0  0  0
   -8.7264    4.2570    1.4499 C   0  0  1  0  0  0  0  0  0  0  0  0
   -9.6073    4.8311    2.5696 C   0  0  0  0  0  0  0  0  0  0  0  0
   -9.4173    4.3610    0.1597 N   0  0  0  0  0  0  0  0  0  0  0  0
  -10.5084    3.5176   -0.2545 C   0  0  0  0  0  0  0  0  0  0  0  0
  -11.1129    3.8063   -1.3262 O   0  0  0  0  0  0  0  0  0  0  0  0
  -10.9193    2.2669    0.4931 C   0  0  1  0  0  0  0  0  0  0  0  0
  -12.4259    2.2671    0.7648 C   0  0  0  0  0  0  0  0  0  0  0  0
  -10.5477    1.0867   -0.3005 N   0  0  0  0  0  0  0  0  0  0  0  0
   -9.3684    0.3128   -0.0189 C   0  0  0  0  0  0  0  0  0  0  0  0
   -8.5366    0.1255   -0.9446 O   0  0  0  0  0  0  0  0  0  0  0  0
   -9.1099   -0.2616    1.3593 C   0  0  1  0  0  0  0  0  0  0  0  0
  -10.2902   -1.0847    1.8902 C   0  0  0  0  0  0  0  0  0  0  0  0
   -7.8443   -1.0194    1.4260 N   0  0  0  0  0  0  0  0  0  0  0  0
   -7.5012   -2.2576    0.7664 C   0  0  0  0  0  0  0  0  0  0  0  0
   -6.3633   -2.7527    0.9932 O   0  0  0  0  0  0  0  0  0  0  0  0
   -2.3002    3.9455   -2.3636 C   0  0  0  0  0  0  0  0  0  0  0  0
   -2.0055    4.0198   -3.5884 O   0  0  0  0  0  0  0  0  0  0  0  0
   -2.2780    5.1620   -1.5920 N   0  0  0  0  0  0  0  0  0  0  0  0
   -1.5468    5.3476   -0.3377 C   0  0  2  0  0  0  0  0  0  0  0  0
   -2.1550    6.5230    0.4408 C   0  0  0  0  0  0  0  0  0  0  0  0
   -0.0726    5.5254   -0.6489 C   0  0  0  0  0  0  0  0  0  0  0  0
    0.5865    4.5089   -0.9978 O   0  0  0  0  0  0  0  0  0  0  0  0
    0.5762    6.8157   -0.6385 N   0  0  0  0  0  0  0  0  0  0  0  0
    1.6786    7.1537   -1.5530 C   0  0  2  0  0  0  0  0  0  0  0  0
    1.1631    7.1693   -3.0027 C   0  0  0  0  0  0  0  0  0  0  0  0
    2.8446    6.2090   -1.3563 C   0  0  0  0  0  0  0  0  0  0  0  0
    3.2662    5.5155   -2.3216 O   0  0  0  0  0  0  0  0  0  0  0  0
    3.4184    6.0092   -0.0571 N   0  0  0  0  0  0  0  0  0  0  0  0
    4.1592    7.0284    0.6971 C   0  0  2  0  0  0  0  0  0  0  0  0
    3.2253    8.0830    1.3043 C   0  0  0  0  0  0  0  0  0  0  0  0
    5.2355    7.6607   -0.1671 C   0  0  0  0  0  0  0  0  0  0  0  0
    4.8863    8.3490   -1.1639 O   0  0  0  0  0  0  0  0  0  0  0  0
    6.6432    7.4536    0.0607 N   0  0  0  0  0  0  0  0  0  0  0  0
    7.2453    7.0992    1.3536 C   0  0  2  0  0  0  0  0  0  0  0  0
    7.0580    8.2438    2.3581 C   0  0  0  0  0  0  0  0  0  0  0  0
    8.7176    6.8105    1.1861 C   0  0  0  0  0  0  0  0  0  0  0  0
    9.5019    7.7420    0.8615 O   0  0  0  0  0  0  0  0  0  0  0  0
    9.2514    5.5053    1.4518 N   0  0  0  0  0  0  0  0  0  0  0  0
    8.7176    4.2961    0.8165 C   0  0  2  0  0  0  0  0  0  0  0  0
    8.6540    3.1673    1.8458 C   0  0  0  0  0  0  0  0  0  0  0  0
    9.5885    3.8969   -0.3499 C   0  0  0  0  0  0  0  0  0  0  0  0
   10.5864    4.5991   -0.6743 O   0  0  0  0  0  0  0  0  0  0  0  0
    9.2630    2.7456   -1.1307 N   0  0  0  0  0  0  0  0  0  0  0  0
   10.0104    1.4980   -0.9582 C   0  0  2  0  0  0  0  0  0  0  0  0
   11.3362    1.5747   -1.7270 C   0  0  0  0  0  0  0  0  0  0  0  0
    9.1830    0.3354   -1.4631 C   0  0  0  0  0  0  0  0  0  0  0  0
    8.6937    0.4041   -2.6235 O   0  0  0  0  0  0  0  0  0  0  0  0
    8.9040   -0.8325   -0.6699 N   0  0  0  0  0  0  0  0  0  0  0  0
    9.8479   -1.4271    0.2860 C   0  0  2  0  0  0  0  0  0  0  0  0
   10.8961   -2.2546   -0.4644 C   0  0  0  0  0  0  0  0  0  0  0  0
    9.1313   -2.2949    1.2956 C   0  0  0  0  0  0  0  0  0  0  0  0
    9.4608   -2.2290    2.5101 O   0  0  0  0  0  0  0  0  0  0  0  0
    8.1055   -3.2166    0.8920 N   0  0  0  0  0  0  0  0  0  0  0  0
    8.1966   -4.6843    0.9802 C   0  0  2  0  0  0  0  0  0  0  0  0
    9.5442   -5.1675    1.5335 C   0  0  0  0  0  0  0  0  0  0  0  0
    7.9811   -5.2812   -0.3966 C   0  0  0  0  0  0  0  0  0  0  0  0
    8.4298   -4.6570   -1.3983 O   0  0  0  0  0  0  0  0  0  0  0  0
    7.3437   -6.5502   -0.6180 N   0  0  0  0  0  0  0  0  0  0  0  0
    6.3657   -7.1793    0.2831 C   0  0  2  0  0  0  0  0  0  0  0  0
    7.0826   -8.0890    1.2888 C   0  0  0  0  0  0  0  0  0  0  0  0
    5.3856   -8.0017   -0.5246 C   0  0  0  0  0  0  0  0  0  0  0  0
    5.8181   -8.8387   -1.3654 O   0  0  0  0  0  0  0  0  0  0  0  0
    3.9694   -7.8276   -0.3932 N   0  0  0  0  0  0  0  0  0  0  0  0
    3.3001   -7.8801    0.9085 C   0  0  2  0  0  0  0  0  0  0  0  0
    3.1982   -9.3405    1.3723 C   0  0  0  0  0  0  0  0  0  0  0  0
    1.9506   -7.2120    0.7902 C   0  0  0  0  0  0  0  0  0  0  0  0
    1.8920   -5.9513    0.7584 O   0  0  0  0  0  0  0  0  0  0  0  0
    0.7455   -7.9710    0.6220 N   0  0  0  0  0  0  0  0  0  0  0  0
   -0.0250   -7.8673   -0.6176 C   0  0  1  0  0  0  0  0  0  0  0  0
    0.3632   -8.9850   -1.5429 C   0  0  0  0  0  0  0  0  0  0  0  0
    1.0430   -8.7069   -2.7650 N   0  0  0  0  0  0  0  0  0  0  0  0
    0.1109  -10.1794   -1.2280 O   0  0  0  0  0  0  0  0  0  0  0  0
   -1.5365   -7.8903   -0.3285 C   0  0  0  0  0  0  0  0  0  0  0  0
   -2.1446   -6.3224    0.4026 S   0  0  0  0  0  0  0  0  0  0  0  0
   -1.7778   -5.2638   -1.0431 C   0  0  0  0  0  0  0  0  0  0  0  0
  -11.0324   -5.5401    2.1257 H   0  0  0  0  0  0  0  0  0  0  0  0
   -9.9654   -6.7207    1.2618 H   0  0  0  0  0  0  0  0  0  0  0  0
  -11.6441   -6.4148    0.6683 H   0  0  0  0  0  0  0  0  0  0  0  0
   -8.6072   -4.3952    1.5908 H   0  0  0  0  0  0  0  0  0  0  0  0
   -9.2753   -2.3796   -0.4732 H   0  0  0  0  0  0  0  0  0  0  0  0
   -6.8596   -4.2153   -1.0279 H   0  0  0  0  0  0  0  0  0  0  0  0
   -8.4211   -4.3011   -1.8958 H   0  0  0  0  0  0  0  0  0  0  0  0
   -6.0047   -4.1241   -3.4589 H   0  0  0  0  0  0  0  0  0  0  0  0
   -5.4783   -2.5328   -4.0864 H   0  0  0  0  0  0  0  0  0  0  0  0
   -4.1069   -5.1002   -2.4298 H   0  0  0  0  0  0  0  0  0  0  0  0
   -1.5376   -2.8470    0.1792 H   0  0  0  0  0  0  0  0  0  0  0  0
   -4.8318   -0.9124   -1.7863 H   0  0  0  0  0  0  0  0  0  0  0  0
   -3.6876    0.2202   -0.0233 H   0  0  0  0  0  0  0  0  0  0  0  0
   -2.5342   -0.6143    1.0422 H   0  0  0  0  0  0  0  0  0  0  0  0
   -0.9009    2.5799   -0.6466 H   0  0  0  0  0  0  0  0  0  0  0  0
   -2.3603    2.2057    0.3240 H   0  0  0  0  0  0  0  0  0  0  0  0
   -2.5916    1.8824   -2.6686 H   0  0  0  0  0  0  0  0  0  0  0  0
   -4.6548    1.6096   -1.6765 H   0  0  0  0  0  0  0  0  0  0  0  0
   -7.0223    3.1154   -0.4467 H   0  0  0  0  0  0  0  0  0  0  0  0
   -4.8652    1.8888    1.3871 H   0  0  0  0  0  0  0  0  0  0  0  0
   -5.9049    1.0268    0.1551 H   0  0  0  0  0  0  0  0  0  0  0  0
   -6.6525    1.7146    1.6135 H   0  0  0  0  0  0  0  0  0  0  0  0
   -5.3025    4.6349    1.5670 H   0  0  0  0  0  0  0  0  0  0  0  0
   -8.5041    3.1938    1.6837 H   0  0  0  0  0  0  0  0  0  0  0  0
   -9.8740    5.8915    2.3648 H   0  0  0  0  0  0  0  0  0  0  0  0
  -10.5471    4.2476    2.6747 H   0  0  0  0  0  0  0  0  0  0  0  0
   -9.0635    4.7799    3.5411 H   0  0  0  0  0  0  0  0  0  0  0  0
   -9.1513    5.1397   -0.4871 H   0  0  0  0  0  0  0  0  0  0  0  0
  -10.4368    2.2263    1.4852 H   0  0  0  0  0  0  0  0  0  0  0  0
  -12.7166    1.3330    1.2937 H   0  0  0  0  0  0  0  0  0  0  0  0
  -13.0061    2.3339   -0.1821 H   0  0  0  0  0  0  0  0  0  0  0  0
  -12.6833    3.1264    1.4191 H   0  0  0  0  0  0  0  0  0  0  0  0
  -10.9732    0.9908   -1.2514 H   0  0  0  0  0  0  0  0  0  0  0  0
   -9.0010    0.5908    2.0617 H   0  0  0  0  0  0  0  0  0  0  0  0
   -9.9975   -1.6230    2.8160 H   0  0  0  0  0  0  0  0  0  0  0  0
  -11.1324   -0.4108    2.1409 H   0  0  0  0  0  0  0  0  0  0  0  0
  -10.6584   -1.8114    1.1447 H   0  0  0  0  0  0  0  0  0  0  0  0
   -7.0962   -0.6121    2.0302 H   0  0  0  0  0  0  0  0  0  0  0  0
   -2.4499    6.0326   -2.1433 H   0  0  0  0  0  0  0  0  0  0  0  0
   -1.6757    4.4667    0.3204 H   0  0  0  0  0  0  0  0  0  0  0  0
   -3.2070    6.2909    0.7068 H   0  0  0  0  0  0  0  0  0  0  0  0
   -1.5984    6.6866    1.3912 H   0  0  0  0  0  0  0  0  0  0  0  0
   -2.1529    7.4493   -0.1668 H   0  0  0  0  0  0  0  0  0  0  0  0
    0.1825    7.5930   -0.0661 H   0  0  0  0  0  0  0  0  0  0  0  0
    2.0251    8.1864   -1.3341 H   0  0  0  0  0  0  0  0  0  0  0  0
    0.7964    6.1660   -3.2973 H   0  0  0  0  0  0  0  0  0  0  0  0
    0.3238    7.8924   -3.0924 H   0  0  0  0  0  0  0  0  0  0  0  0
    1.9708    7.4791   -3.6968 H   0  0  0  0  0  0  0  0  0  0  0  0
    3.4829    5.0220    0.2738 H   0  0  0  0  0  0  0  0  0  0  0  0
    4.6253    6.5096    1.5556 H   0  0  0  0  0  0  0  0  0  0  0  0
    3.7034    8.5427    2.1897 H   0  0  0  0  0  0  0  0  0  0  0  0
    2.9931    8.8971    0.5923 H   0  0  0  0  0  0  0  0  0  0  0  0
    2.2820    7.6105    1.6413 H   0  0  0  0  0  0  0  0  0  0  0  0
    7.2820    7.6880   -0.7372 H   0  0  0  0  0  0  0  0  0  0  0  0
    6.7610    6.1865    1.7600 H   0  0  0  0  0  0  0  0  0  0  0  0
    7.4534    9.1993    1.9455 H   0  0  0  0  0  0  0  0  0  0  0  0
    5.9838    8.3783    2.5916 H   0  0  0  0  0  0  0  0  0  0  0  0
    7.5849    8.0131    3.3110 H   0  0  0  0  0  0  0  0  0  0  0  0
   10.2108    5.4567    1.8561 H   0  0  0  0  0  0  0  0  0  0  0  0
    7.6902    4.4788    0.4329 H   0  0  0  0  0  0  0  0  0  0  0  0
    9.6760    2.9033    2.1990 H   0  0  0  0  0  0  0  0  0  0  0  0
    8.1797    2.2654    1.4028 H   0  0  0  0  0  0  0  0  0  0  0  0
    8.0450    3.4846    2.7207 H   0  0  0  0  0  0  0  0  0  0  0  0
    8.7999    2.9276   -2.0491 H   0  0  0  0  0  0  0  0  0  0  0  0
   10.2432    1.3754    0.1188 H   0  0  0  0  0  0  0  0  0  0  0  0
   11.9276    0.6492   -1.5714 H   0  0  0  0  0  0  0  0  0  0  0  0
   11.9426    2.4281   -1.3583 H   0  0  0  0  0  0  0  0  0  0  0  0
   11.1495    1.7131   -2.8159 H   0  0  0  0  0  0  0  0  0  0  0  0
    8.1698   -1.4630   -1.0634 H   0  0  0  0  0  0  0  0  0  0  0  0
   10.3902   -0.6376    0.8459 H   0  0  0  0  0  0  0  0  0  0  0  0
   11.4518   -1.6178   -1.1810 H   0  0  0  0  0  0  0  0  0  0  0  0
   10.4147   -3.0758   -1.0317 H   0  0  0  0  0  0  0  0  0  0  0  0
   11.6273   -2.6896    0.2517 H   0  0  0  0  0  0  0  0  0  0  0  0
    7.2214   -2.8127    0.5038 H   0  0  0  0  0  0  0  0  0  0  0  0
    7.3994   -5.0263    1.6750 H   0  0  0  0  0  0  0  0  0  0  0  0
    9.6726   -4.8316    2.5840 H   0  0  0  0  0  0  0  0  0  0  0  0
    9.5918   -6.2794    1.5235 H   0  0  0  0  0  0  0  0  0  0  0  0
   10.3851   -4.7838    0.9205 H   0  0  0  0  0  0  0  0  0  0  0  0
    7.5082   -6.9820   -1.5572 H   0  0  0  0  0  0  0  0  0  0  0  0
    5.8037   -6.3954    0.8314 H   0  0  0  0  0  0  0  0  0  0  0  0
    7.6790   -7.4799    1.9955 H   0  0  0  0  0  0  0  0  0  0  0  0
    7.7548   -8.8008    0.7659 H   0  0  0  0  0  0  0  0  0  0  0  0
    6.3428   -8.6583    1.8862 H   0  0  0  0  0  0  0  0  0  0  0  0
    3.3936   -8.0581   -1.2372 H   0  0  0  0  0  0  0  0  0  0  0  0
    3.8841   -7.3196    1.6676 H   0  0  0  0  0  0  0  0  0  0  0  0
    4.2128   -9.7693    1.5060 H   0  0  0  0  0  0  0  0  0  0  0  0
    2.6654   -9.4022    2.3451 H   0  0  0  0  0  0  0  0  0  0  0  0
    2.6634   -9.9556    0.6133 H   0  0  0  0  0  0  0  0  0  0  0  0
    0.5824   -8.8078    1.2247 H   0  0  0  0  0  0  0  0  0  0  0  0
    0.2298   -6.9211   -1.1251 H   0  0  0  0  0  0  0  0  0  0  0  0
    1.3177   -7.7330   -3.0143 H   0  0  0  0  0  0  0  0  0  0  0  0
    1.3210   -9.4804   -3.4084 H   0  0  0  0  0  0  0  0  0  0  0  0
   -2.1115   -8.0916   -1.2592 H   0  0  0  0  0  0  0  0  0  0  0  0
   -1.7669   -8.7125    0.3758 H   0  0  0  0  0  0  0  0  0  0  0  0
   -0.7347   -4.8881   -0.9540 H   0  0  0  0  0  0  0  0  0  0  0  0
   -1.8332   -5.8524   -1.9867 H   0  0  0  0  0  0  0  0  0  0  0  0
  1  2  1  0
  2  3  2  0
  2  4  1  0
  4  5  1  0
  5  6  1  0
  6  7  1  0
  7  8  1  0
  8  9  1  0
  9 10  2  0
 10 11  1  0
 11 12  2  0
 12 13  1  0
 13 14  2  0
 13 15  1  0
 15 16  1  0
 16 17  1  0
 17 18  1  0
 18 19  1  0
 19 20  1  0
 20 21  2  0
 20 22  1  0
 22 23  1  0
 22 24  1  0
 24 25  1  0
 25 26  2  0
 25 27  1  0
 27 28  1  0
 27 29  1  0
 29 30  1  0
 30 31  2  0
 30 32  1  0
 32 33  1  0
 32 34  1  0
 34 35  1  0
 35 36  2  0
 35 37  1  0
 37 38  1  0
 37 39  1  0
 39 40  1  0
 40 41  2  0
 18 42  1  0
 42 43  2  0
 42 44  1  0
 44 45  1  0
 45 46  1  0
 45 47  1  0
 47 48  2  0
 47 49  1  0
 49 50  1  0
 50 51  1  0
 50 52  1  0
 52 53  2  0
 52 54  1  0
 54 55  1  0
 55 56  1  0
 55 57  1  0
 57 58  2  0
 57 59  1  0
 59 60  1  0
 60 61  1  0
 60 62  1  0
 62 63  2  0
 62 64  1  0
 64 65  1  0
 65 66  1  0
 65 67  1  0
 67 68  2  0
 67 69  1  0
 69 70  1  0
 70 71  1  0
 70 72  1  0
 72 73  2  0
 72 74  1  0
 74 75  1  0
 75 76  1  0
 75 77  1  0
 77 78  2  0
 77 79  1  0
 79 80  1  0
 80 81  1  0
 80 82  1  0
 82 83  2  0
 82 84  1  0
 84 85  1  0
 85 86  1  0
 85 87  1  0
 87 88  2  0
 87 89  1  0
 89 90  1  0
 90 91  1  0
 90 92  1  0
 92 93  2  0
 92 94  1  0
 94 95  1  0
 95 96  1  0
 96 97  1  0
 96 98  2  0
 95 99  1  0
 99100  1  0
100101  1  0
 40  5  1  0
 14  9  1  0
101 11  1  0
  1102  1  0
  1103  1  0
  1104  1  0
  4105  1  0
  5106  1  6
  6107  1  0
  6108  1  0
  8109  1  0
  8110  1  0
 10111  1  0
 12112  1  0
 14113  1  0
 15114  1  0
 15115  1  0
 17116  1  0
 17117  1  0
 18118  1  6
 19119  1  0
 22120  1  6
 23121  1  0
 23122  1  0
 23123  1  0
 24124  1  0
 27125  1  1
 28126  1  0
 28127  1  0
 28128  1  0
 29129  1  0
 32130  1  1
 33131  1  0
 33132  1  0
 33133  1  0
 34134  1  0
 37135  1  1
 38136  1  0
 38137  1  0
 38138  1  0
 39139  1  0
 44140  1  0
 45141  1  1
 46142  1  0
 46143  1  0
 46144  1  0
 49145  1  0
 50146  1  1
 51147  1  0
 51148  1  0
 51149  1  0
 54150  1  0
 55151  1  1
 56152  1  0
 56153  1  0
 56154  1  0
 59155  1  0
 60156  1  1
 61157  1  0
 61158  1  0
 61159  1  0
 64160  1  0
 65161  1  6
 66162  1  0
 66163  1  0
 66164  1  0
 69165  1  0
 70166  1  1
 71167  1  0
 71168  1  0
 71169  1  0
 74170  1  0
 75171  1  1
 76172  1  0
 76173  1  0
 76174  1  0
 79175  1  0
 80176  1  1
 81177  1  0
 81178  1  0
 81179  1  0
 84180  1  0
 85181  1  1
 86182  1  0
 86183  1  0
 86184  1  0
 89185  1  0
 90186  1  1
 91187  1  0
 91188  1  0
 91189  1  0
 94190  1  0
 95191  1  6
 97192  1  0
 97193  1  0
 99194  1  0
 99195  1  0
101196  1  0
101197  1  0
M  END
