
     RDKit          3D

197199  0  0  0  0  0  0  0  0999 V2000
   -9.6387    6.8862    1.3744 C   0  0  0  0  0  0  0  0  0  0  0  0
   -9.8124    5.5915    2.1016 C   0  0  0  0  0  0  0  0  0  0  0  0
  -10.3518    5.6328    3.2397 O   0  0  0  0  0  0  0  0  0  0  0  0
   -9.3913    4.3112    1.5898 N   0  0  0  0  0  0  0  0  0  0  0  0
   -9.0229    3.9369    0.2110 C   0  0  2  0  0  0  0  0  0  0  0  0
   -7.5741    4.3508   -0.1059 C   0  0  0  0  0  0  0  0  0  0  0  0
   -6.9882    3.5958   -1.6753 S   0  0  0  0  0  0  0  0  0  0  0  0
   -6.5584    1.9373   -1.0021 C   0  0  0  0  0  0  0  0  0  0  0  0
   -5.0667    1.7477   -1.0163 C   0  0  0  0  0  0  0  0  0  0  0  0
   -4.4846    0.6572   -1.6992 C   0  0  0  0  0  0  0  0  0  0  0  0
   -3.0927    0.4490   -1.6573 C   0  0  0  0  0  0  0  0  0  0  0  0
   -2.2870    1.3429   -0.9366 C   0  0  0  0  0  0  0  0  0  0  0  0
   -2.8597    2.4093   -0.2276 C   0  0  0  0  0  0  0  0  0  0  0  0
   -4.2426    2.6030   -0.2703 C   0  0  0  0  0  0  0  0  0  0  0  0
   -1.9928    3.3256    0.5929 C   0  0  0  0  0  0  0  0  0  0  0  0
   -1.1229    4.5050   -0.4934 S   0  0  0  0  0  0  0  0  0  0  0  0
   -0.8683    5.7800    0.7925 C   0  0  0  0  0  0  0  0  0  0  0  0
    0.3733    6.6403    0.4999 C   0  0  1  0  0  0  0  0  0  0  0  0
    0.2321    7.3823   -0.8076 C   0  0  0  0  0  0  0  0  0  0  0  0
   -0.7598    8.3957   -0.9672 N   0  0  0  0  0  0  0  0  0  0  0  0
    0.9991    7.1071   -1.7674 O   0  0  0  0  0  0  0  0  0  0  0  0
    0.5809    7.6017    1.5881 N   0  0  0  0  0  0  0  0  0  0  0  0
    1.7793    8.3786    1.7822 C   0  0  0  0  0  0  0  0  0  0  0  0
    1.7663    9.2817    2.6626 O   0  0  0  0  0  0  0  0  0  0  0  0
    3.0396    8.1859    0.9588 C   0  0  1  0  0  0  0  0  0  0  0  0
    3.1996    9.3842    0.0140 C   0  0  0  0  0  0  0  0  0  0  0  0
    4.2014    8.0647    1.8494 N   0  0  0  0  0  0  0  0  0  0  0  0
    5.4374    7.4037    1.5138 C   0  0  0  0  0  0  0  0  0  0  0  0
    6.1857    7.0198    2.4536 O   0  0  0  0  0  0  0  0  0  0  0  0
    5.9329    7.2578    0.0916 C   0  0  1  0  0  0  0  0  0  0  0  0
    6.7259    8.5269   -0.2681 C   0  0  0  0  0  0  0  0  0  0  0  0
    6.7813    6.0647   -0.0282 N   0  0  0  0  0  0  0  0  0  0  0  0
    7.7018    5.8645   -1.1073 C   0  0  0  0  0  0  0  0  0  0  0  0
    7.3706    6.1755   -2.2867 O   0  0  0  0  0  0  0  0  0  0  0  0
    9.0874    5.3484   -0.8435 C   0  0  1  0  0  0  0  0  0  0  0  0
    9.7786    6.1712    0.2489 C   0  0  0  0  0  0  0  0  0  0  0  0
    9.0516    3.9317   -0.4656 N   0  0  0  0  0  0  0  0  0  0  0  0
    9.4512    2.9179   -1.3973 C   0  0  0  0  0  0  0  0  0  0  0  0
    8.9628    2.9203   -2.5591 O   0  0  0  0  0  0  0  0  0  0  0  0
   10.5022    1.9058   -1.0324 C   0  0  1  0  0  0  0  0  0  0  0  0
   11.8028    2.6083   -0.6449 C   0  0  0  0  0  0  0  0  0  0  0  0
   10.0399    1.0549    0.0607 N   0  0  0  0  0  0  0  0  0  0  0  0
    9.6114   -0.2919   -0.1708 C   0  0  0  0  0  0  0  0  0  0  0  0
    8.3860   -0.5156   -0.3691 O   0  0  0  0  0  0  0  0  0  0  0  0
   10.5541   -1.4597   -0.0127 C   0  0  1  0  0  0  0  0  0  0  0  0
   12.0041   -1.0789   -0.3411 C   0  0  0  0  0  0  0  0  0  0  0  0
   10.4844   -1.9586    1.3623 N   0  0  0  0  0  0  0  0  0  0  0  0
   10.2664   -3.3235    1.7709 C   0  0  0  0  0  0  0  0  0  0  0  0
   10.2916   -3.5839    3.0081 O   0  0  0  0  0  0  0  0  0  0  0  0
   10.0439   -4.4598    0.7903 C   0  0  1  0  0  0  0  0  0  0  0  0
   11.3617   -4.8783    0.1354 C   0  0  0  0  0  0  0  0  0  0  0  0
    9.4762   -5.6241    1.4810 N   0  0  0  0  0  0  0  0  0  0  0  0
    8.4276   -6.4454    0.9443 C   0  0  0  0  0  0  0  0  0  0  0  0
    8.5124   -7.6976    1.0817 O   0  0  0  0  0  0  0  0  0  0  0  0
    7.2195   -5.8542    0.2480 C   0  0  1  0  0  0  0  0  0  0  0  0
    7.1714   -6.2945   -1.2165 C   0  0  0  0  0  0  0  0  0  0  0  0
    5.9838   -6.2066    0.9519 N   0  0  0  0  0  0  0  0  0  0  0  0
    5.5891   -7.5562    1.2274 C   0  0  0  0  0  0  0  0  0  0  0  0
    5.7917   -8.0321    2.3763 O   0  0  0  0  0  0  0  0  0  0  0  0
    4.7307   -8.3102    0.2411 C   0  0  1  0  0  0  0  0  0  0  0  0
    5.0951   -9.7927    0.2033 C   0  0  0  0  0  0  0  0  0  0  0  0
    3.3159   -8.1348    0.5808 N   0  0  0  0  0  0  0  0  0  0  0  0
    2.3382   -7.9947   -0.4568 C   0  0  0  0  0  0  0  0  0  0  0  0
    2.3623   -8.7716   -1.4517 O   0  0  0  0  0  0  0  0  0  0  0  0
    1.3212   -6.8893   -0.3533 C   0  0  1  0  0  0  0  0  0  0  0  0
    2.0292   -5.5359   -0.5331 C   0  0  0  0  0  0  0  0  0  0  0  0
    0.2537   -7.0293   -1.3529 N   0  0  0  0  0  0  0  0  0  0  0  0
   -0.9750   -6.2797   -1.3039 C   0  0  0  0  0  0  0  0  0  0  0  0
   -1.3955   -5.7542   -2.3721 O   0  0  0  0  0  0  0  0  0  0  0  0
   -1.8180   -6.1309   -0.0532 C   0  0  1  0  0  0  0  0  0  0  0  0
   -2.0325   -7.4640    0.6615 C   0  0  0  0  0  0  0  0  0  0  0  0
   -1.2509   -5.1381    0.8676 N   0  0  0  0  0  0  0  0  0  0  0  0
   -1.8143   -3.8652    1.2233 C   0  0  0  0  0  0  0  0  0  0  0  0
   -1.1124   -3.0843    1.9309 O   0  0  0  0  0  0  0  0  0  0  0  0
   -3.1561   -3.3608    0.7341 C   0  0  1  0  0  0  0  0  0  0  0  0
   -3.1071   -2.9036   -0.7414 C   0  0  0  0  0  0  0  0  0  0  0  0
   -1.6778   -1.8072   -1.0670 S   0  0  0  0  0  0  0  0  0  0  0  0
   -2.4674   -0.7504   -2.3260 C   0  0  0  0  0  0  0  0  0  0  0  0
   -4.2035   -4.3501    0.9960 N   0  0  0  0  0  0  0  0  0  0  0  0
   -5.3788   -4.4976    0.1874 C   0  0  0  0  0  0  0  0  0  0  0  0
   -5.3958   -5.3772   -0.7192 O   0  0  0  0  0  0  0  0  0  0  0  0
   -6.6268   -3.6894    0.4461 C   0  0  1  0  0  0  0  0  0  0  0  0
   -6.4070   -2.5417    1.4362 C   0  0  0  0  0  0  0  0  0  0  0  0
   -7.1185   -3.1435   -0.8267 N   0  0  0  0  0  0  0  0  0  0  0  0
   -8.2836   -3.6094   -1.5334 C   0  0  0  0  0  0  0  0  0  0  0  0
   -8.2956   -3.5356   -2.7886 O   0  0  0  0  0  0  0  0  0  0  0  0
   -9.5239   -4.1299   -0.8375 C   0  0  1  0  0  0  0  0  0  0  0  0
   -9.4571   -5.6545   -0.6703 C   0  0  0  0  0  0  0  0  0  0  0  0
   -9.7389   -3.4553    0.4496 N   0  0  0  0  0  0  0  0  0  0  0  0
  -10.1572   -2.0837    0.5914 C   0  0  0  0  0  0  0  0  0  0  0  0
  -10.3267   -1.6216    1.7524 O   0  0  0  0  0  0  0  0  0  0  0  0
  -10.4893   -1.2029   -0.5950 C   0  0  1  0  0  0  0  0  0  0  0  0
  -11.9807   -1.3572   -0.9318 C   0  0  0  0  0  0  0  0  0  0  0  0
  -10.1662    0.1963   -0.2978 N   0  0  0  0  0  0  0  0  0  0  0  0
  -10.5490    1.2608   -1.1798 C   0  0  0  0  0  0  0  0  0  0  0  0
  -10.0988    1.2813   -2.3601 O   0  0  0  0  0  0  0  0  0  0  0  0
  -11.5644    2.2956   -0.7511 C   0  0  1  0  0  0  0  0  0  0  0  0
  -11.8848    2.2652    0.7439 C   0  0  0  0  0  0  0  0  0  0  0  0
  -11.1881    3.6512   -1.1954 N   0  0  0  0  0  0  0  0  0  0  0  0
  -10.0301    4.4156   -0.8135 C   0  0  0  0  0  0  0  0  0  0  0  0
   -9.8267    5.5060   -1.4093 O   0  0  0  0  0  0  0  0  0  0  0  0
   -9.1090    7.6067    2.0340 H   0  0  0  0  0  0  0  0  0  0  0  0
  -10.6364    7.3009    1.1172 H   0  0  0  0  0  0  0  0  0  0  0  0
   -9.0491    6.7993    0.4520 H   0  0  0  0  0  0  0  0  0  0  0  0
   -9.4248    3.5228    2.2791 H   0  0  0  0  0  0  0  0  0  0  0  0
   -9.0096    2.8302    0.1812 H   0  0  0  0  0  0  0  0  0  0  0  0
   -6.9083    4.0523    0.7316 H   0  0  0  0  0  0  0  0  0  0  0  0
   -7.4755    5.4494   -0.2057 H   0  0  0  0  0  0  0  0  0  0  0  0
   -6.9172    1.7953    0.0401 H   0  0  0  0  0  0  0  0  0  0  0  0
   -7.0642    1.1761   -1.6396 H   0  0  0  0  0  0  0  0  0  0  0  0
   -5.1182   -0.0276   -2.2494 H   0  0  0  0  0  0  0  0  0  0  0  0
   -1.2113    1.1896   -0.9004 H   0  0  0  0  0  0  0  0  0  0  0  0
   -4.6845    3.3931    0.3116 H   0  0  0  0  0  0  0  0  0  0  0  0
   -2.6098    3.8722    1.3369 H   0  0  0  0  0  0  0  0  0  0  0  0
   -1.2315    2.7242    1.1431 H   0  0  0  0  0  0  0  0  0  0  0  0
   -1.7773    6.4091    0.8596 H   0  0  0  0  0  0  0  0  0  0  0  0
   -0.7226    5.2968    1.7853 H   0  0  0  0  0  0  0  0  0  0  0  0
    1.2280    5.9425    0.4508 H   0  0  0  0  0  0  0  0  0  0  0  0
   -0.7600    8.9920   -1.8224 H   0  0  0  0  0  0  0  0  0  0  0  0
   -1.3884    8.6646   -0.1736 H   0  0  0  0  0  0  0  0  0  0  0  0
   -0.2480    7.8893    2.1516 H   0  0  0  0  0  0  0  0  0  0  0  0
    2.9599    7.2645    0.3422 H   0  0  0  0  0  0  0  0  0  0  0  0
    3.5370   10.2843    0.5838 H   0  0  0  0  0  0  0  0  0  0  0  0
    2.2346    9.6209   -0.4847 H   0  0  0  0  0  0  0  0  0  0  0  0
    3.9324    9.1605   -0.7866 H   0  0  0  0  0  0  0  0  0  0  0  0
    4.0949    8.3326    2.8544 H   0  0  0  0  0  0  0  0  0  0  0  0
    5.0807    7.1457   -0.6079 H   0  0  0  0  0  0  0  0  0  0  0  0
    6.9809    8.5459   -1.3485 H   0  0  0  0  0  0  0  0  0  0  0  0
    6.1306    9.4385   -0.0516 H   0  0  0  0  0  0  0  0  0  0  0  0
    7.6610    8.5770    0.3273 H   0  0  0  0  0  0  0  0  0  0  0  0
    6.6076    5.2369    0.5888 H   0  0  0  0  0  0  0  0  0  0  0  0
    9.7056    5.4655   -1.7662 H   0  0  0  0  0  0  0  0  0  0  0  0
    9.8277    7.2438   -0.0488 H   0  0  0  0  0  0  0  0  0  0  0  0
   10.8144    5.8042    0.4014 H   0  0  0  0  0  0  0  0  0  0  0  0
    9.2314    6.0904    1.2125 H   0  0  0  0  0  0  0  0  0  0  0  0
    8.9675    3.6843    0.5460 H   0  0  0  0  0  0  0  0  0  0  0  0
   10.7099    1.2840   -1.9308 H   0  0  0  0  0  0  0  0  0  0  0  0
   12.6049    1.8641   -0.4632 H   0  0  0  0  0  0  0  0  0  0  0  0
   11.6662    3.2074    0.2803 H   0  0  0  0  0  0  0  0  0  0  0  0
   12.1390    3.2822   -1.4627 H   0  0  0  0  0  0  0  0  0  0  0  0
    9.8822    1.4667    1.0069 H   0  0  0  0  0  0  0  0  0  0  0  0
   10.2422   -2.2380   -0.7371 H   0  0  0  0  0  0  0  0  0  0  0  0
   12.6615   -1.9675   -0.2595 H   0  0  0  0  0  0  0  0  0  0  0  0
   12.3765   -0.3201    0.3759 H   0  0  0  0  0  0  0  0  0  0  0  0
   12.0741   -0.6887   -1.3772 H   0  0  0  0  0  0  0  0  0  0  0  0
   10.6708   -1.2655    2.1247 H   0  0  0  0  0  0  0  0  0  0  0  0
    9.3544   -4.1175   -0.0119 H   0  0  0  0  0  0  0  0  0  0  0  0
   11.7735   -4.0655   -0.4906 H   0  0  0  0  0  0  0  0  0  0  0  0
   11.1877   -5.7523   -0.5267 H   0  0  0  0  0  0  0  0  0  0  0  0
   12.1101   -5.1616    0.9096 H   0  0  0  0  0  0  0  0  0  0  0  0
   10.0457   -6.0465    2.2509 H   0  0  0  0  0  0  0  0  0  0  0  0
    7.2938   -4.7482    0.2544 H   0  0  0  0  0  0  0  0  0  0  0  0
    6.2531   -5.8952   -1.6986 H   0  0  0  0  0  0  0  0  0  0  0  0
    8.0556   -5.8955   -1.7629 H   0  0  0  0  0  0  0  0  0  0  0  0
    7.1769   -7.4044   -1.3013 H   0  0  0  0  0  0  0  0  0  0  0  0
    5.5095   -5.4507    1.4952 H   0  0  0  0  0  0  0  0  0  0  0  0
    4.9100   -7.8918   -0.7740 H   0  0  0  0  0  0  0  0  0  0  0  0
    4.4692  -10.3251   -0.5474 H   0  0  0  0  0  0  0  0  0  0  0  0
    4.9366  -10.2653    1.1981 H   0  0  0  0  0  0  0  0  0  0  0  0
    6.1629   -9.9138   -0.0848 H   0  0  0  0  0  0  0  0  0  0  0  0
    3.0777   -7.7136    1.5076 H   0  0  0  0  0  0  0  0  0  0  0  0
    0.9050   -6.9555    0.6636 H   0  0  0  0  0  0  0  0  0  0  0  0
    1.2914   -4.7075   -0.4994 H   0  0  0  0  0  0  0  0  0  0  0  0
    2.7653   -5.3781    0.2845 H   0  0  0  0  0  0  0  0  0  0  0  0
    2.5622   -5.5052   -1.5112 H   0  0  0  0  0  0  0  0  0  0  0  0
    0.5379   -7.3494   -2.3038 H   0  0  0  0  0  0  0  0  0  0  0  0
   -2.8155   -5.8082   -0.3852 H   0  0  0  0  0  0  0  0  0  0  0  0
   -2.4008   -8.2312   -0.0514 H   0  0  0  0  0  0  0  0  0  0  0  0
   -2.7920   -7.3311    1.4632 H   0  0  0  0  0  0  0  0  0  0  0  0
   -1.1007   -7.8325    1.1347 H   0  0  0  0  0  0  0  0  0  0  0  0
   -0.3584   -5.3726    1.3538 H   0  0  0  0  0  0  0  0  0  0  0  0
   -3.4095   -2.4577    1.3326 H   0  0  0  0  0  0  0  0  0  0  0  0
   -3.0396   -3.7745   -1.4266 H   0  0  0  0  0  0  0  0  0  0  0  0
   -4.0559   -2.3714   -0.9742 H   0  0  0  0  0  0  0  0  0  0  0  0
   -3.2068   -1.3269   -2.9231 H   0  0  0  0  0  0  0  0  0  0  0  0
   -1.6791   -0.4001   -3.0207 H   0  0  0  0  0  0  0  0  0  0  0  0
   -4.1929   -4.8649    1.9065 H   0  0  0  0  0  0  0  0  0  0  0  0
   -7.3640   -4.3756    0.8972 H   0  0  0  0  0  0  0  0  0  0  0  0
   -5.9522   -2.9112    2.3829 H   0  0  0  0  0  0  0  0  0  0  0  0
   -7.3830   -2.0754    1.6857 H   0  0  0  0  0  0  0  0  0  0  0  0
   -5.7454   -1.7660    0.9922 H   0  0  0  0  0  0  0  0  0  0  0  0
   -6.4777   -2.4996   -1.3464 H   0  0  0  0  0  0  0  0  0  0  0  0
  -10.4023   -3.9297   -1.4872 H   0  0  0  0  0  0  0  0  0  0  0  0
   -8.5678   -5.9746   -0.0925 H   0  0  0  0  0  0  0  0  0  0  0  0
  -10.3649   -6.0151   -0.1426 H   0  0  0  0  0  0  0  0  0  0  0  0
   -9.4149   -6.1396   -1.6706 H   0  0  0  0  0  0  0  0  0  0  0  0
   -9.6395   -4.0063    1.3317 H   0  0  0  0  0  0  0  0  0  0  0  0
   -9.8970   -1.5078   -1.4811 H   0  0  0  0  0  0  0  0  0  0  0  0
  -12.6079   -0.9466   -0.1093 H   0  0  0  0  0  0  0  0  0  0  0  0
  -12.2436   -2.4264   -1.0846 H   0  0  0  0  0  0  0  0  0  0  0  0
  -12.2122   -0.8161   -1.8708 H   0  0  0  0  0  0  0  0  0  0  0  0
   -9.4534    0.4239    0.4354 H   0  0  0  0  0  0  0  0  0  0  0  0
  -12.5058    2.0221   -1.2750 H   0  0  0  0  0  0  0  0  0  0  0  0
  -12.4246    3.1890    1.0426 H   0  0  0  0  0  0  0  0  0  0  0  0
  -12.5317    1.3866    0.9779 H   0  0  0  0  0  0  0  0  0  0  0  0
  -10.9710    2.1652    1.3591 H   0  0  0  0  0  0  0  0  0  0  0  0
  -11.8357    4.0993   -1.8852 H   0  0  0  0  0  0  0  0  0  0  0  0
  1  2  1  0
  2  3  2  0
  2  4  1  0
  4  5  1  0
  5  6  1  0
  6  7  1  0
  7  8  1  0
  8  9  1  0
  9 10  2  0
 10 11  1  0
 11 12  2  0
 12 13  1  0
 13 14  2  0
 13 15  1  0
 15 16  1  0
 16 17  1  0
 17 18  1  0
 18 19  1  0
 19 20  1  0
 19 21  2  0
 18 22  1  0
 22 23  1  0
 23 24  2  0
 23 25  1  0
 25 26  1  0
 25 27  1  0
 27 28  1  0
 28 29  2  0
 28 30  1  0
 30 31  1  0
 30 32  1  0
 32 33  1  0
 33 34  2  0
 33 35  1  0
 35 36  1  0
 35 37  1  0
 37 38  1  0
 38 39  2  0
 38 40  1  0
 40 41  1  0
 40 42  1  0
 42 43  1  0
 43 44  2  0
 43 45  1  0
 45 46  1  0
 45 47  1  0
 47 48  1  0
 48 49  2  0
 48 50  1  0
 50 51  1  0
 50 52  1  0
 52 53  1  0
 53 54  2  0
 53 55  1  0
 55 56  1  0
 55 57  1  0
 57 58  1  0
 58 59  2  0
 58 60  1  0
 60 61  1  0
 60 62  1  0
 62 63  1  0
 63 64  2  0
 63 65  1  0
 65 66  1  0
 65 67  1  0
 67 68  1  0
 68 69  2  0
 68 70  1  0
 70 71  1  0
 70 72  1  0
 72 73  1  0
 73 74  2  0
 73 75  1  0
 75 76  1  0
 76 77  1  0
 77 78  1  0
 75 79  1  0
 79 80  1  0
 80 81  2  0
 80 82  1  0
 82 83  1  0
 82 84  1  0
 84 85  1  0
 85 86  2  0
 85 87  1  0
 87 88  1  0
 87 89  1  0
 89 90  1  0
 90 91  2  0
 90 92  1  0
 92 93  1  0
 92 94  1  0
 94 95  1  0
 95 96  2  0
 95 97  1  0
 97 98  1  0
 97 99  1  0
 99100  1  0
100101  2  0
100  5  1  0
 14  9  1  0
 78 11  1  0
  1102  1  0
  1103  1  0
  1104  1  0
  4105  1  0
  5106  1  1
  6107  1  0
  6108  1  0
  8109  1  0
  8110  1  0
 10111  1  0
 12112  1  0
 14113  1  0
 15114  1  0
 15115  1  0
 17116  1  0
 17117  1  0
 18118  1  6
 20119  1  0
 20120  1  0
 22121  1  0
 25122  1  6
 26123  1  0
 26124  1  0
 26125  1  0
 27126  1  0
 30127  1  6
 31128  1  0
 31129  1  0
 31130  1  0
 32131  1  0
 35132  1  6
 36133  1  0
 36134  1  0
 36135  1  0
 37136  1  0
 40137  1  6
 41138  1  0
 41139  1  0
 41140  1  0
 42141  1  0
 45142  1  6
 46143  1  0
 46144  1  0
 46145  1  0
 47146  1  0
 50147  1  6
 51148  1  0
 51149  1  0
 51150  1  0
 52151  1  0
 55152  1  6
 56153  1  0
 56154  1  0
 56155  1  0
 57156  1  0
 60157  1  6
 61158  1  0
 61159  1  0
 61160  1  0
 62161  1  0
 65162  1  1
 66163  1  0
 66164  1  0
 66165  1  0
 67166  1  0
 70167  1  6
 71168  1  0
 71169  1  0
 71170  1  0
 72171  1  0
 75172  1  1
 76173  1  0
 76174  1  0
 78175  1  0
 78176  1  0
 79177  1  0
 82178  1  1
 83179  1  0
 83180  1  0
 83181  1  0
 84182  1  0
 87183  1  6
 88184  1  0
 88185  1  0
 88186  1  0
 89187  1  0
 92188  1  6
 93189  1  0
 93190  1  0
 93191  1  0
 94192  1  0
 97193  1  6
 98194  1  0
 98195  1  0
 98196  1  0
 99197  1  0
M  END
