
     RDKit          3D

157159  0  0  0  0  0  0  0  0999 V2000
   -7.2795    5.1062   -1.7998 C   0  0  0  0  0  0  0  0  0  0  0  0
   -6.6214    4.0839   -0.9293 C   0  0  0  0  0  0  0  0  0  0  0  0
   -5.7542    3.3124   -1.4291 O   0  0  0  0  0  0  0  0  0  0  0  0
   -6.9980    3.9675    0.4541 N   0  0  0  0  0  0  0  0  0  0  0  0
   -6.3698    3.0264    1.3946 C   0  0  2  0  0  0  0  0  0  0  0  0
   -4.8934    3.4129    1.5884 C   0  0  0  0  0  0  0  0  0  0  0  0
   -4.1553    2.6263    3.0680 S   0  0  0  0  0  0  0  0  0  0  0  0
   -2.5578    3.5108    2.9737 C   0  0  0  0  0  0  0  0  0  0  0  0
   -1.8019    3.1135    1.7340 C   0  0  0  0  0  0  0  0  0  0  0  0
   -1.7827    3.9704    0.6224 C   0  0  0  0  0  0  0  0  0  0  0  0
   -1.1610    3.5769   -0.5664 C   0  0  0  0  0  0  0  0  0  0  0  0
   -0.5241    2.3282   -0.6294 C   0  0  0  0  0  0  0  0  0  0  0  0
   -0.4678    1.4892    0.4931 C   0  0  0  0  0  0  0  0  0  0  0  0
   -1.1169    1.8878    1.6792 C   0  0  0  0  0  0  0  0  0  0  0  0
    0.4671    0.3052    0.4201 C   0  0  0  0  0  0  0  0  0  0  0  0
    0.2947   -0.9343    1.7664 S   0  0  0  0  0  0  0  0  0  0  0  0
   -0.6316   -2.2360    0.8675 C   0  0  0  0  0  0  0  0  0  0  0  0
    0.0993   -2.8048   -0.3740 C   0  0  2  0  0  0  0  0  0  0  0  0
   -0.7039   -2.5584   -1.5942 N   0  0  0  0  0  0  0  0  0  0  0  0
   -1.7091   -3.4216   -2.1665 C   0  0  0  0  0  0  0  0  0  0  0  0
   -1.4772   -3.9274   -3.2997 O   0  0  0  0  0  0  0  0  0  0  0  0
   -3.0604   -3.6967   -1.5335 C   0  0  1  0  0  0  0  0  0  0  0  0
   -3.0024   -4.6974   -0.3766 C   0  0  0  0  0  0  0  0  0  0  0  0
   -3.7232   -2.4589   -1.1167 N   0  0  0  0  0  0  0  0  0  0  0  0
   -4.8794   -1.9826   -1.8165 C   0  0  0  0  0  0  0  0  0  0  0  0
   -4.7248   -1.3211   -2.8777 O   0  0  0  0  0  0  0  0  0  0  0  0
   -6.2768   -2.3641   -1.3790 C   0  0  1  0  0  0  0  0  0  0  0  0
   -6.6525   -3.7200   -1.9834 C   0  0  0  0  0  0  0  0  0  0  0  0
   -6.3957   -2.4204    0.0871 N   0  0  0  0  0  0  0  0  0  0  0  0
   -7.6170   -2.2537    0.8312 C   0  0  0  0  0  0  0  0  0  0  0  0
   -7.5510   -2.1743    2.0884 O   0  0  0  0  0  0  0  0  0  0  0  0
   -8.9828   -2.1942    0.1827 C   0  0  1  0  0  0  0  0  0  0  0  0
   -9.8002   -3.4271    0.5703 C   0  0  0  0  0  0  0  0  0  0  0  0
   -9.6725   -0.9828    0.6276 N   0  0  0  0  0  0  0  0  0  0  0  0
   -9.7320    0.1711   -0.2163 C   0  0  0  0  0  0  0  0  0  0  0  0
  -10.3003    0.0935   -1.3411 O   0  0  0  0  0  0  0  0  0  0  0  0
   -9.0216    1.4369    0.1764 C   0  0  1  0  0  0  0  0  0  0  0  0
   -9.4031    1.8378    1.6087 C   0  0  0  0  0  0  0  0  0  0  0  0
   -7.5747    1.2335   -0.0067 N   0  0  0  0  0  0  0  0  0  0  0  0
   -6.5413    1.5957    0.9215 C   0  0  0  0  0  0  0  0  0  0  0  0
   -5.7202    0.7123    1.2819 O   0  0  0  0  0  0  0  0  0  0  0  0
    0.5421   -4.2620   -0.2351 C   0  0  0  0  0  0  0  0  0  0  0  0
   -0.0690   -5.1640   -0.8646 O   0  0  0  0  0  0  0  0  0  0  0  0
    1.6955   -4.6635    0.5282 N   0  0  0  0  0  0  0  0  0  0  0  0
    2.4359   -3.8361    1.4876 C   0  0  2  0  0  0  0  0  0  0  0  0
    3.3071   -2.7725    0.7886 C   0  0  0  0  0  0  0  0  0  0  0  0
    3.2780   -4.7072    2.4001 C   0  0  0  0  0  0  0  0  0  0  0  0
    3.1834   -4.5376    3.6438 O   0  0  0  0  0  0  0  0  0  0  0  0
    4.1465   -5.7481    1.9137 N   0  0  0  0  0  0  0  0  0  0  0  0
    4.8204   -5.7485    0.6058 C   0  0  2  0  0  0  0  0  0  0  0  0
    4.6977   -7.1301   -0.0398 C   0  0  0  0  0  0  0  0  0  0  0  0
    6.2717   -5.3887    0.7899 C   0  0  0  0  0  0  0  0  0  0  0  0
    6.9780   -6.0539    1.5996 O   0  0  0  0  0  0  0  0  0  0  0  0
    6.8645   -4.3282    0.0291 N   0  0  0  0  0  0  0  0  0  0  0  0
    8.1308   -3.7047    0.4365 C   0  0  2  0  0  0  0  0  0  0  0  0
    7.9696   -2.9647    1.7724 C   0  0  0  0  0  0  0  0  0  0  0  0
    8.6944   -2.8152   -0.6584 C   0  0  0  0  0  0  0  0  0  0  0  0
    9.9065   -2.9553   -0.9720 O   0  0  0  0  0  0  0  0  0  0  0  0
    7.8903   -1.9106   -1.4350 N   0  0  0  0  0  0  0  0  0  0  0  0
    6.9843   -0.9097   -0.8717 C   0  0  2  0  0  0  0  0  0  0  0  0
    5.5881   -1.0956   -1.4760 C   0  0  0  0  0  0  0  0  0  0  0  0
    7.4915    0.4768   -1.2036 C   0  0  0  0  0  0  0  0  0  0  0  0
    7.7224    0.7546   -2.4103 O   0  0  0  0  0  0  0  0  0  0  0  0
    7.7164    1.4955   -0.2134 N   0  0  0  0  0  0  0  0  0  0  0  0
    7.1492    1.5489    1.1455 C   0  0  2  0  0  0  0  0  0  0  0  0
    5.6215    1.3273    1.1721 C   0  0  0  0  0  0  0  0  0  0  0  0
    7.4883    2.8754    1.7992 C   0  0  0  0  0  0  0  0  0  0  0  0
    8.2849    2.8734    2.7772 O   0  0  0  0  0  0  0  0  0  0  0  0
    6.9054    4.1311    1.3882 N   0  0  0  0  0  0  0  0  0  0  0  0
    6.4514    4.4429    0.0258 C   0  0  2  0  0  0  0  0  0  0  0  0
    7.5383    5.2189   -0.7167 C   0  0  0  0  0  0  0  0  0  0  0  0
    5.1751    5.2392    0.0664 C   0  0  0  0  0  0  0  0  0  0  0  0
    5.1732    6.3992    0.5603 O   0  0  0  0  0  0  0  0  0  0  0  0
    3.9611    4.6843   -0.4578 N   0  0  0  0  0  0  0  0  0  0  0  0
    2.9008    5.5287   -1.0129 C   0  0  1  0  0  0  0  0  0  0  0  0
    3.2846    5.9438   -2.4129 C   0  0  0  0  0  0  0  0  0  0  0  0
    3.4162    7.3263   -2.7506 N   0  0  0  0  0  0  0  0  0  0  0  0
    3.4938    5.0649   -3.2937 O   0  0  0  0  0  0  0  0  0  0  0  0
    1.5738    4.7595   -1.0160 C   0  0  0  0  0  0  0  0  0  0  0  0
    0.1579    5.8559   -1.4117 S   0  0  0  0  0  0  0  0  0  0  0  0
   -1.0678    4.5305   -1.7264 C   0  0  0  0  0  0  0  0  0  0  0  0
   -6.8817    5.0489   -2.8352 H   0  0  0  0  0  0  0  0  0  0  0  0
   -7.0869    6.1201   -1.3945 H   0  0  0  0  0  0  0  0  0  0  0  0
   -8.3741    4.9210   -1.8266 H   0  0  0  0  0  0  0  0  0  0  0  0
   -7.7367    4.6099    0.8195 H   0  0  0  0  0  0  0  0  0  0  0  0
   -6.8708    3.1286    2.3819 H   0  0  0  0  0  0  0  0  0  0  0  0
   -4.3225    3.1227    0.6864 H   0  0  0  0  0  0  0  0  0  0  0  0
   -4.8226    4.5168    1.7047 H   0  0  0  0  0  0  0  0  0  0  0  0
   -1.9547    3.2667    3.8726 H   0  0  0  0  0  0  0  0  0  0  0  0
   -2.7457    4.6074    2.9991 H   0  0  0  0  0  0  0  0  0  0  0  0
   -2.2742    4.9349    0.6701 H   0  0  0  0  0  0  0  0  0  0  0  0
   -0.0147    2.0355   -1.5393 H   0  0  0  0  0  0  0  0  0  0  0  0
   -1.0809    1.2691    2.5656 H   0  0  0  0  0  0  0  0  0  0  0  0
    1.5014    0.7046    0.4958 H   0  0  0  0  0  0  0  0  0  0  0  0
    0.3879   -0.1603   -0.5842 H   0  0  0  0  0  0  0  0  0  0  0  0
   -1.5932   -1.7789    0.5843 H   0  0  0  0  0  0  0  0  0  0  0  0
   -0.8483   -3.0446    1.5951 H   0  0  0  0  0  0  0  0  0  0  0  0
    1.0394   -2.2477   -0.5121 H   0  0  0  0  0  0  0  0  0  0  0  0
   -0.2731   -1.8975   -2.2748 H   0  0  0  0  0  0  0  0  0  0  0  0
   -3.6839   -4.1808   -2.3186 H   0  0  0  0  0  0  0  0  0  0  0  0
   -2.6523   -5.6871   -0.7472 H   0  0  0  0  0  0  0  0  0  0  0  0
   -4.0194   -4.8324    0.0456 H   0  0  0  0  0  0  0  0  0  0  0  0
   -2.3363   -4.3555    0.4297 H   0  0  0  0  0  0  0  0  0  0  0  0
   -3.5753   -2.0999   -0.1521 H   0  0  0  0  0  0  0  0  0  0  0  0
   -6.9666   -1.5867   -1.7775 H   0  0  0  0  0  0  0  0  0  0  0  0
   -6.0113   -4.5258   -1.5716 H   0  0  0  0  0  0  0  0  0  0  0  0
   -6.5337   -3.6897   -3.0900 H   0  0  0  0  0  0  0  0  0  0  0  0
   -7.7112   -3.9688   -1.7643 H   0  0  0  0  0  0  0  0  0  0  0  0
   -5.5602   -2.6833    0.6551 H   0  0  0  0  0  0  0  0  0  0  0  0
   -8.9049   -2.1827   -0.9246 H   0  0  0  0  0  0  0  0  0  0  0  0
   -9.9695   -3.4532    1.6687 H   0  0  0  0  0  0  0  0  0  0  0  0
   -9.2654   -4.3512    0.2708 H   0  0  0  0  0  0  0  0  0  0  0  0
  -10.7839   -3.4065    0.0568 H   0  0  0  0  0  0  0  0  0  0  0  0
   -9.8719   -0.8715    1.6470 H   0  0  0  0  0  0  0  0  0  0  0  0
   -9.3469    2.2508   -0.5058 H   0  0  0  0  0  0  0  0  0  0  0  0
  -10.4995    1.7288    1.7599 H   0  0  0  0  0  0  0  0  0  0  0  0
   -8.8783    1.2051    2.3548 H   0  0  0  0  0  0  0  0  0  0  0  0
   -9.1634    2.9020    1.7956 H   0  0  0  0  0  0  0  0  0  0  0  0
   -7.2682    0.7093   -0.8568 H   0  0  0  0  0  0  0  0  0  0  0  0
    1.9611   -5.6673    0.4471 H   0  0  0  0  0  0  0  0  0  0  0  0
    1.7039   -3.3122    2.1355 H   0  0  0  0  0  0  0  0  0  0  0  0
    4.3640   -2.7948    1.1333 H   0  0  0  0  0  0  0  0  0  0  0  0
    2.9170   -1.7561    1.0006 H   0  0  0  0  0  0  0  0  0  0  0  0
    3.2912   -2.9208   -0.3113 H   0  0  0  0  0  0  0  0  0  0  0  0
    4.4595   -6.4640    2.6045 H   0  0  0  0  0  0  0  0  0  0  0  0
    4.3457   -5.0283   -0.0867 H   0  0  0  0  0  0  0  0  0  0  0  0
    5.1547   -7.1224   -1.0530 H   0  0  0  0  0  0  0  0  0  0  0  0
    5.2059   -7.8980    0.5811 H   0  0  0  0  0  0  0  0  0  0  0  0
    3.6309   -7.4109   -0.1449 H   0  0  0  0  0  0  0  0  0  0  0  0
    6.3748   -3.9961   -0.8304 H   0  0  0  0  0  0  0  0  0  0  0  0
    8.8752   -4.5123    0.5946 H   0  0  0  0  0  0  0  0  0  0  0  0
    6.9731   -2.4855    1.8577 H   0  0  0  0  0  0  0  0  0  0  0  0
    8.0439   -3.6929    2.6109 H   0  0  0  0  0  0  0  0  0  0  0  0
    8.7670   -2.2021    1.9122 H   0  0  0  0  0  0  0  0  0  0  0  0
    8.0982   -1.8560   -2.4566 H   0  0  0  0  0  0  0  0  0  0  0  0
    6.9203   -1.0302    0.2189 H   0  0  0  0  0  0  0  0  0  0  0  0
    5.6180   -0.9644   -2.5795 H   0  0  0  0  0  0  0  0  0  0  0  0
    5.2201   -2.1139   -1.2622 H   0  0  0  0  0  0  0  0  0  0  0  0
    4.8695   -0.3686   -1.0487 H   0  0  0  0  0  0  0  0  0  0  0  0
    8.3242    2.2885   -0.5261 H   0  0  0  0  0  0  0  0  0  0  0  0
    7.6240    0.7373    1.7477 H   0  0  0  0  0  0  0  0  0  0  0  0
    5.3851    0.2472    1.2344 H   0  0  0  0  0  0  0  0  0  0  0  0
    5.1370    1.7418    0.2699 H   0  0  0  0  0  0  0  0  0  0  0  0
    5.1728    1.7962    2.0734 H   0  0  0  0  0  0  0  0  0  0  0  0
    7.0195    4.9364    2.0438 H   0  0  0  0  0  0  0  0  0  0  0  0
    6.2568    3.5185   -0.5442 H   0  0  0  0  0  0  0  0  0  0  0  0
    7.7597    6.1757   -0.2019 H   0  0  0  0  0  0  0  0  0  0  0  0
    8.4739    4.6224   -0.7574 H   0  0  0  0  0  0  0  0  0  0  0  0
    7.2092    5.4345   -1.7569 H   0  0  0  0  0  0  0  0  0  0  0  0
    3.9141    3.6505   -0.6246 H   0  0  0  0  0  0  0  0  0  0  0  0
    2.7735    6.4263   -0.3677 H   0  0  0  0  0  0  0  0  0  0  0  0
    3.7029    7.6026   -3.7159 H   0  0  0  0  0  0  0  0  0  0  0  0
    3.2534    8.0676   -2.0342 H   0  0  0  0  0  0  0  0  0  0  0  0
    1.4133    4.3451    0.0048 H   0  0  0  0  0  0  0  0  0  0  0  0
    1.6186    3.9235   -1.7433 H   0  0  0  0  0  0  0  0  0  0  0  0
   -2.0610    5.0000   -1.8977 H   0  0  0  0  0  0  0  0  0  0  0  0
   -0.7946    4.0006   -2.6640 H   0  0  0  0  0  0  0  0  0  0  0  0
  1  2  1  0
  2  3  2  0
  2  4  1  0
  4  5  1  0
  5  6  1  0
  6  7  1  0
  7  8  1  0
  8  9  1  0
  9 10  2  0
 10 11  1  0
 11 12  2  0
 12 13  1  0
 13 14  2  0
 13 15  1  0
 15 16  1  0
 16 17  1  0
 17 18  1  0
 18 19  1  0
 19 20  1  0
 20 21  2  0
 20 22  1  0
 22 23  1  0
 22 24  1  0
 24 25  1  0
 25 26  2  0
 25 27  1  0
 27 28  1  0
 27 29  1  0
 29 30  1  0
 30 31  2  0
 30 32  1  0
 32 33  1  0
 32 34  1  0
 34 35  1  0
 35 36  2  0
 35 37  1  0
 37 38  1  0
 37 39  1  0
 39 40  1  0
 40 41  2  0
 18 42  1  0
 42 43  2  0
 42 44  1  0
 44 45  1  0
 45 46  1  0
 45 47  1  0
 47 48  2  0
 47 49  1  0
 49 50  1  0
 50 51  1  0
 50 52  1  0
 52 53  2  0
 52 54  1  0
 54 55  1  0
 55 56  1  0
 55 57  1  0
 57 58  2  0
 57 59  1  0
 59 60  1  0
 60 61  1  0
 60 62  1  0
 62 63  2  0
 62 64  1  0
 64 65  1  0
 65 66  1  0
 65 67  1  0
 67 68  2  0
 67 69  1  0
 69 70  1  0
 70 71  1  0
 70 72  1  0
 72 73  2  0
 72 74  1  0
 74 75  1  0
 75 76  1  0
 76 77  1  0
 76 78  2  0
 75 79  1  0
 79 80  1  0
 80 81  1  0
 40  5  1  0
 14  9  1  0
 81 11  1  0
  1 82  1  0
  1 83  1  0
  1 84  1  0
  4 85  1  0
  5 86  1  1
  6 87  1  0
  6 88  1  0
  8 89  1  0
  8 90  1  0
 10 91  1  0
 12 92  1  0
 14 93  1  0
 15 94  1  0
 15 95  1  0
 17 96  1  0
 17 97  1  0
 18 98  1  6
 19 99  1  0
 22100  1  6
 23101  1  0
 23102  1  0
 23103  1  0
 24104  1  0
 27105  1  6
 28106  1  0
 28107  1  0
 28108  1  0
 29109  1  0
 32110  1  6
 33111  1  0
 33112  1  0
 33113  1  0
 34114  1  0
 37115  1  6
 38116  1  0
 38117  1  0
 38118  1  0
 39119  1  0
 44120  1  0
 45121  1  1
 46122  1  0
 46123  1  0
 46124  1  0
 49125  1  0
 50126  1  6
 51127  1  0
 51128  1  0
 51129  1  0
 54130  1  0
 55131  1  1
 56132  1  0
 56133  1  0
 56134  1  0
 59135  1  0
 60136  1  1
 61137  1  0
 61138  1  0
 61139  1  0
 64140  1  0
 65141  1  1
 66142  1  0
 66143  1  0
 66144  1  0
 69145  1  0
 70146  1  6
 71147  1  0
 71148  1  0
 71149  1  0
 74150  1  0
 75151  1  1
 77152  1  0
 77153  1  0
 79154  1  0
 79155  1  0
 81156  1  0
 81157  1  0
M  END
