
     RDKit          3D

187189  0  0  0  0  0  0  0  0999 V2000
  -11.4188    5.5900    0.0697 C   0  0  0  0  0  0  0  0  0  0  0  0
  -10.8476    4.6528   -0.9547 C   0  0  0  0  0  0  0  0  0  0  0  0
  -11.5622    4.2994   -1.9305 O   0  0  0  0  0  0  0  0  0  0  0  0
   -9.4990    4.1591   -0.8637 N   0  0  0  0  0  0  0  0  0  0  0  0
   -8.5880    4.4594    0.2494 C   0  0  2  0  0  0  0  0  0  0  0  0
   -7.1099    4.2683   -0.1511 C   0  0  0  0  0  0  0  0  0  0  0  0
   -6.7076    2.5475   -0.6466 S   0  0  0  0  0  0  0  0  0  0  0  0
   -5.4975    2.9347   -1.9583 C   0  0  0  0  0  0  0  0  0  0  0  0
   -4.0949    2.7976   -1.4397 C   0  0  0  0  0  0  0  0  0  0  0  0
   -3.4990    3.8257   -0.6869 C   0  0  0  0  0  0  0  0  0  0  0  0
   -2.1862    3.6820   -0.2077 C   0  0  0  0  0  0  0  0  0  0  0  0
   -1.4834    2.4925   -0.4540 C   0  0  0  0  0  0  0  0  0  0  0  0
   -2.0774    1.4541   -1.1919 C   0  0  0  0  0  0  0  0  0  0  0  0
   -3.3806    1.6202   -1.6853 C   0  0  0  0  0  0  0  0  0  0  0  0
   -1.3729    0.1367   -1.3500 C   0  0  0  0  0  0  0  0  0  0  0  0
   -1.6364   -0.8860    0.1451 S   0  0  0  0  0  0  0  0  0  0  0  0
   -2.6063   -2.2049   -0.6766 C   0  0  0  0  0  0  0  0  0  0  0  0
   -3.0215   -3.3364    0.2832 C   0  0  2  0  0  0  0  0  0  0  0  0
   -3.9761   -2.8443    1.2846 N   0  0  0  0  0  0  0  0  0  0  0  0
   -4.8624   -3.7085    2.0183 C   0  0  0  0  0  0  0  0  0  0  0  0
   -5.0597   -3.4747    3.2403 O   0  0  0  0  0  0  0  0  0  0  0  0
   -5.6025   -4.8485    1.3475 C   0  0  1  0  0  0  0  0  0  0  0  0
   -4.8090   -6.1547    1.4299 C   0  0  0  0  0  0  0  0  0  0  0  0
   -6.9039   -5.0469    2.0051 N   0  0  0  0  0  0  0  0  0  0  0  0
   -8.1662   -4.6415    1.4624 C   0  0  0  0  0  0  0  0  0  0  0  0
   -9.0735   -4.2753    2.2594 O   0  0  0  0  0  0  0  0  0  0  0  0
   -8.4768   -4.6940   -0.0134 C   0  0  1  0  0  0  0  0  0  0  0  0
   -9.6990   -5.6004   -0.2446 C   0  0  0  0  0  0  0  0  0  0  0  0
   -8.6712   -3.3205   -0.5068 N   0  0  0  0  0  0  0  0  0  0  0  0
   -9.8849   -2.8091   -1.0807 C   0  0  0  0  0  0  0  0  0  0  0  0
  -10.3673   -3.3634   -2.1039 O   0  0  0  0  0  0  0  0  0  0  0  0
  -10.5844   -1.6086   -0.4850 C   0  0  1  0  0  0  0  0  0  0  0  0
  -12.0501   -1.9493   -0.2033 C   0  0  0  0  0  0  0  0  0  0  0  0
   -9.9395   -1.1896    0.7598 N   0  0  0  0  0  0  0  0  0  0  0  0
   -9.1002   -0.0279    0.8391 C   0  0  0  0  0  0  0  0  0  0  0  0
   -7.8796   -0.1812    1.1104 O   0  0  0  0  0  0  0  0  0  0  0  0
   -9.6382    1.3776    0.6330 C   0  0  1  0  0  0  0  0  0  0  0  0
  -11.1639    1.4540    0.7683 C   0  0  0  0  0  0  0  0  0  0  0  0
   -9.0217    2.2760    1.6228 N   0  0  0  0  0  0  0  0  0  0  0  0
   -8.9612    3.7146    1.5149 C   0  0  0  0  0  0  0  0  0  0  0  0
   -9.1704    4.3982    2.5541 O   0  0  0  0  0  0  0  0  0  0  0  0
   -1.8290   -3.9581    0.9773 C   0  0  0  0  0  0  0  0  0  0  0  0
   -1.3402   -3.3959    1.9927 O   0  0  0  0  0  0  0  0  0  0  0  0
   -1.3032   -5.2296    0.5655 N   0  0  0  0  0  0  0  0  0  0  0  0
   -0.9032   -5.4900   -0.8218 C   0  0  2  0  0  0  0  0  0  0  0  0
   -1.0300   -6.9832   -1.1517 C   0  0  0  0  0  0  0  0  0  0  0  0
    0.4807   -4.9254   -1.0677 C   0  0  0  0  0  0  0  0  0  0  0  0
    0.5819   -3.7073   -1.3844 O   0  0  0  0  0  0  0  0  0  0  0  0
    1.6780   -5.7146   -1.0133 N   0  0  0  0  0  0  0  0  0  0  0  0
    2.1313   -6.4443    0.1814 C   0  0  2  0  0  0  0  0  0  0  0  0
    2.2990   -5.4933    1.3749 C   0  0  0  0  0  0  0  0  0  0  0  0
    3.4293   -7.1538   -0.1216 C   0  0  0  0  0  0  0  0  0  0  0  0
    3.4681   -8.4149   -0.0855 O   0  0  0  0  0  0  0  0  0  0  0  0
    4.6045   -6.4072   -0.4775 N   0  0  0  0  0  0  0  0  0  0  0  0
    5.6529   -6.9546   -1.3495 C   0  0  2  0  0  0  0  0  0  0  0  0
    6.4478   -8.0821   -0.6751 C   0  0  0  0  0  0  0  0  0  0  0  0
    6.5640   -5.8511   -1.8540 C   0  0  0  0  0  0  0  0  0  0  0  0
    6.8000   -5.7953   -3.0924 O   0  0  0  0  0  0  0  0  0  0  0  0
    7.1232   -4.8238   -1.0097 N   0  0  0  0  0  0  0  0  0  0  0  0
    7.4534   -4.9899    0.4098 C   0  0  2  0  0  0  0  0  0  0  0  0
    7.1286   -3.7078    1.1874 C   0  0  0  0  0  0  0  0  0  0  0  0
    8.8982   -5.4217    0.5348 C   0  0  0  0  0  0  0  0  0  0  0  0
    9.2018   -6.6150    0.2527 O   0  0  0  0  0  0  0  0  0  0  0  0
    9.9329   -4.5445    1.0037 N   0  0  0  0  0  0  0  0  0  0  0  0
   10.2854   -3.3037    0.3045 C   0  0  2  0  0  0  0  0  0  0  0  0
   11.5145   -3.5421   -0.5772 C   0  0  0  0  0  0  0  0  0  0  0  0
   10.5612   -2.2114    1.3115 C   0  0  0  0  0  0  0  0  0  0  0  0
   11.2374   -2.4738    2.3419 O   0  0  0  0  0  0  0  0  0  0  0  0
   10.0507   -0.8802    1.1344 N   0  0  0  0  0  0  0  0  0  0  0  0
   10.1528   -0.1659   -0.1433 C   0  0  2  0  0  0  0  0  0  0  0  0
   11.5605    0.4230   -0.2955 C   0  0  0  0  0  0  0  0  0  0  0  0
    9.0866    0.8947   -0.2337 C   0  0  0  0  0  0  0  0  0  0  0  0
    7.9029    0.5596   -0.5271 O   0  0  0  0  0  0  0  0  0  0  0  0
    9.3763    2.2664    0.0700 N   0  0  0  0  0  0  0  0  0  0  0  0
    9.2294    3.3230   -0.9316 C   0  0  2  0  0  0  0  0  0  0  0  0
   10.5192    4.1494   -0.9696 C   0  0  0  0  0  0  0  0  0  0  0  0
    7.9858    4.1381   -0.6257 C   0  0  0  0  0  0  0  0  0  0  0  0
    6.8686    3.5566   -0.6645 O   0  0  0  0  0  0  0  0  0  0  0  0
    8.0440    5.5412   -0.2943 N   0  0  0  0  0  0  0  0  0  0  0  0
    6.9778    6.2517    0.4206 C   0  0  2  0  0  0  0  0  0  0  0  0
    6.6588    5.5469    1.7483 C   0  0  0  0  0  0  0  0  0  0  0  0
    5.7482    6.4209   -0.4412 C   0  0  0  0  0  0  0  0  0  0  0  0
    5.8233    6.2761   -1.6906 O   0  0  0  0  0  0  0  0  0  0  0  0
    4.4755    6.7298    0.1497 N   0  0  0  0  0  0  0  0  0  0  0  0
    4.0241    8.1120    0.3925 C   0  0  2  0  0  0  0  0  0  0  0  0
    5.1221    8.9873    1.0044 C   0  0  0  0  0  0  0  0  0  0  0  0
    2.8304    8.0915    1.3123 C   0  0  0  0  0  0  0  0  0  0  0  0
    2.8803    7.4542    2.3933 O   0  0  0  0  0  0  0  0  0  0  0  0
    1.6393    8.8203    0.9902 N   0  0  0  0  0  0  0  0  0  0  0  0
    0.5891    8.2856    0.1160 C   0  0  1  0  0  0  0  0  0  0  0  0
    1.0677    8.2579   -1.3169 C   0  0  0  0  0  0  0  0  0  0  0  0
    0.9034    9.4092   -2.1499 N   0  0  0  0  0  0  0  0  0  0  0  0
    1.6559    7.2390   -1.7720 O   0  0  0  0  0  0  0  0  0  0  0  0
    0.1042    6.9117    0.6115 C   0  0  0  0  0  0  0  0  0  0  0  0
   -1.2829    6.2695   -0.4020 S   0  0  0  0  0  0  0  0  0  0  0  0
   -1.5444    4.7703    0.6103 C   0  0  0  0  0  0  0  0  0  0  0  0
  -11.4361    5.1029    1.0650 H   0  0  0  0  0  0  0  0  0  0  0  0
  -10.8127    6.5190    0.1143 H   0  0  0  0  0  0  0  0  0  0  0  0
  -12.4586    5.8695   -0.2014 H   0  0  0  0  0  0  0  0  0  0  0  0
   -9.1304    3.6322   -1.6909 H   0  0  0  0  0  0  0  0  0  0  0  0
   -8.6737    5.5495    0.4623 H   0  0  0  0  0  0  0  0  0  0  0  0
   -6.4567    4.5494    0.7032 H   0  0  0  0  0  0  0  0  0  0  0  0
   -6.8999    4.9815   -0.9746 H   0  0  0  0  0  0  0  0  0  0  0  0
   -5.6498    3.9296   -2.4201 H   0  0  0  0  0  0  0  0  0  0  0  0
   -5.6698    2.2029   -2.7724 H   0  0  0  0  0  0  0  0  0  0  0  0
   -4.0481    4.7355   -0.4918 H   0  0  0  0  0  0  0  0  0  0  0  0
   -0.4798    2.3633   -0.0692 H   0  0  0  0  0  0  0  0  0  0  0  0
   -3.8459    0.8058   -2.2260 H   0  0  0  0  0  0  0  0  0  0  0  0
   -1.7248   -0.3802   -2.2638 H   0  0  0  0  0  0  0  0  0  0  0  0
   -0.2846    0.3039   -1.4751 H   0  0  0  0  0  0  0  0  0  0  0  0
   -3.5273   -1.7527   -1.1202 H   0  0  0  0  0  0  0  0  0  0  0  0
   -1.9958   -2.6267   -1.5048 H   0  0  0  0  0  0  0  0  0  0  0  0
   -3.5163   -4.1014   -0.3447 H   0  0  0  0  0  0  0  0  0  0  0  0
   -3.7745   -1.9183    1.7251 H   0  0  0  0  0  0  0  0  0  0  0  0
   -5.7358   -4.5845    0.2787 H   0  0  0  0  0  0  0  0  0  0  0  0
   -5.3366   -6.9428    0.8545 H   0  0  0  0  0  0  0  0  0  0  0  0
   -4.6983   -6.4845    2.4850 H   0  0  0  0  0  0  0  0  0  0  0  0
   -3.8034   -6.0403    0.9873 H   0  0  0  0  0  0  0  0  0  0  0  0
   -6.8895   -5.3239    3.0153 H   0  0  0  0  0  0  0  0  0  0  0  0
   -7.6418   -5.1533   -0.5743 H   0  0  0  0  0  0  0  0  0  0  0  0
   -9.5087   -6.6084    0.1885 H   0  0  0  0  0  0  0  0  0  0  0  0
  -10.6068   -5.1736    0.2368 H   0  0  0  0  0  0  0  0  0  0  0  0
   -9.8852   -5.7364   -1.3313 H   0  0  0  0  0  0  0  0  0  0  0  0
   -7.8791   -2.6473   -0.3702 H   0  0  0  0  0  0  0  0  0  0  0  0
  -10.5462   -0.7828   -1.2334 H   0  0  0  0  0  0  0  0  0  0  0  0
  -12.5908   -2.1217   -1.1577 H   0  0  0  0  0  0  0  0  0  0  0  0
  -12.1208   -2.8579    0.4305 H   0  0  0  0  0  0  0  0  0  0  0  0
  -12.5493   -1.1133    0.3288 H   0  0  0  0  0  0  0  0  0  0  0  0
   -9.8734   -1.8840    1.5394 H   0  0  0  0  0  0  0  0  0  0  0  0
   -9.3635    1.6830   -0.3900 H   0  0  0  0  0  0  0  0  0  0  0  0
  -11.6489    1.0248   -0.1303 H   0  0  0  0  0  0  0  0  0  0  0  0
  -11.5048    0.9133    1.6782 H   0  0  0  0  0  0  0  0  0  0  0  0
  -11.4983    2.5093    0.8428 H   0  0  0  0  0  0  0  0  0  0  0  0
   -8.9794    1.9144    2.5968 H   0  0  0  0  0  0  0  0  0  0  0  0
   -0.8846   -5.8314    1.3109 H   0  0  0  0  0  0  0  0  0  0  0  0
   -1.5988   -4.9700   -1.5225 H   0  0  0  0  0  0  0  0  0  0  0  0
   -0.6211   -7.6205   -0.3444 H   0  0  0  0  0  0  0  0  0  0  0  0
   -0.5049   -7.2191   -2.1029 H   0  0  0  0  0  0  0  0  0  0  0  0
   -2.1004   -7.2512   -1.2640 H   0  0  0  0  0  0  0  0  0  0  0  0
    2.3635   -5.5467   -1.7843 H   0  0  0  0  0  0  0  0  0  0  0  0
    1.3776   -7.2091    0.4603 H   0  0  0  0  0  0  0  0  0  0  0  0
    2.9153   -4.6068    1.1068 H   0  0  0  0  0  0  0  0  0  0  0  0
    1.3076   -5.1348    1.7164 H   0  0  0  0  0  0  0  0  0  0  0  0
    2.7806   -6.0279    2.2272 H   0  0  0  0  0  0  0  0  0  0  0  0
    4.5971   -5.3806   -0.2897 H   0  0  0  0  0  0  0  0  0  0  0  0
    5.1606   -7.3956   -2.2394 H   0  0  0  0  0  0  0  0  0  0  0  0
    6.6667   -7.8719    0.3931 H   0  0  0  0  0  0  0  0  0  0  0  0
    7.4066   -8.2495   -1.2166 H   0  0  0  0  0  0  0  0  0  0  0  0
    5.8748   -9.0303   -0.7156 H   0  0  0  0  0  0  0  0  0  0  0  0
    7.5499   -4.0035   -1.4996 H   0  0  0  0  0  0  0  0  0  0  0  0
    6.8224   -5.7693    0.8694 H   0  0  0  0  0  0  0  0  0  0  0  0
    7.4464   -2.7922    0.6386 H   0  0  0  0  0  0  0  0  0  0  0  0
    7.6073   -3.7216    2.1906 H   0  0  0  0  0  0  0  0  0  0  0  0
    6.0278   -3.6352    1.3384 H   0  0  0  0  0  0  0  0  0  0  0  0
   10.6564   -4.9708    1.6276 H   0  0  0  0  0  0  0  0  0  0  0  0
    9.4578   -2.9958   -0.3613 H   0  0  0  0  0  0  0  0  0  0  0  0
   11.7905   -2.6147   -1.1225 H   0  0  0  0  0  0  0  0  0  0  0  0
   12.3768   -3.8757    0.0345 H   0  0  0  0  0  0  0  0  0  0  0  0
   11.2868   -4.3234   -1.3331 H   0  0  0  0  0  0  0  0  0  0  0  0
    9.9635   -0.2957    1.9952 H   0  0  0  0  0  0  0  0  0  0  0  0
    9.9931   -0.8691   -0.9901 H   0  0  0  0  0  0  0  0  0  0  0  0
   11.7784    1.1307    0.5338 H   0  0  0  0  0  0  0  0  0  0  0  0
   12.3210   -0.3853   -0.2734 H   0  0  0  0  0  0  0  0  0  0  0  0
   11.6459    0.9560   -1.2690 H   0  0  0  0  0  0  0  0  0  0  0  0
    9.6110    2.5240    1.0600 H   0  0  0  0  0  0  0  0  0  0  0  0
    9.1032    2.8653   -1.9403 H   0  0  0  0  0  0  0  0  0  0  0  0
   10.6760    4.6775   -0.0005 H   0  0  0  0  0  0  0  0  0  0  0  0
   11.3960    3.4848   -1.1402 H   0  0  0  0  0  0  0  0  0  0  0  0
   10.4794    4.8910   -1.7971 H   0  0  0  0  0  0  0  0  0  0  0  0
    8.8714    6.1100   -0.5805 H   0  0  0  0  0  0  0  0  0  0  0  0
    7.3534    7.2669    0.6703 H   0  0  0  0  0  0  0  0  0  0  0  0
    7.5960    5.3699    2.3185 H   0  0  0  0  0  0  0  0  0  0  0  0
    5.9917    6.1795    2.3681 H   0  0  0  0  0  0  0  0  0  0  0  0
    6.1527    4.5738    1.5755 H   0  0  0  0  0  0  0  0  0  0  0  0
    3.7216    6.0302   -0.0343 H   0  0  0  0  0  0  0  0  0  0  0  0
    3.7346    8.5720   -0.5763 H   0  0  0  0  0  0  0  0  0  0  0  0
    4.7182    9.9969    1.2441 H   0  0  0  0  0  0  0  0  0  0  0  0
    5.5217    8.5264    1.9341 H   0  0  0  0  0  0  0  0  0  0  0  0
    5.9467    9.1281    0.2742 H   0  0  0  0  0  0  0  0  0  0  0  0
    1.4319    9.6782    1.5482 H   0  0  0  0  0  0  0  0  0  0  0  0
   -0.2808    8.9793    0.1695 H   0  0  0  0  0  0  0  0  0  0  0  0
    1.2515    9.4031   -3.1299 H   0  0  0  0  0  0  0  0  0  0  0  0
    0.4870   10.2908   -1.7640 H   0  0  0  0  0  0  0  0  0  0  0  0
   -0.2349    7.0089    1.6644 H   0  0  0  0  0  0  0  0  0  0  0  0
    0.9467    6.1812    0.5823 H   0  0  0  0  0  0  0  0  0  0  0  0
   -0.5714    4.4189    1.0197 H   0  0  0  0  0  0  0  0  0  0  0  0
   -2.1901    5.0181    1.4780 H   0  0  0  0  0  0  0  0  0  0  0  0
  1  2  1  0
  2  3  2  0
  2  4  1  0
  4  5  1  0
  5  6  1  0
  6  7  1  0
  7  8  1  0
  8  9  1  0
  9 10  2  0
 10 11  1  0
 11 12  2  0
 12 13  1  0
 13 14  2  0
 13 15  1  0
 15 16  1  0
 16 17  1  0
 17 18  1  0
 18 19  1  0
 19 20  1  0
 20 21  2  0
 20 22  1  0
 22 23  1  0
 22 24  1  0
 24 25  1  0
 25 26  2  0
 25 27  1  0
 27 28  1  0
 27 29  1  0
 29 30  1  0
 30 31  2  0
 30 32  1  0
 32 33  1  0
 32 34  1  0
 34 35  1  0
 35 36  2  0
 35 37  1  0
 37 38  1  0
 37 39  1  0
 39 40  1  0
 40 41  2  0
 18 42  1  0
 42 43  2  0
 42 44  1  0
 44 45  1  0
 45 46  1  0
 45 47  1  0
 47 48  2  0
 47 49  1  0
 49 50  1  0
 50 51  1  0
 50 52  1  0
 52 53  2  0
 52 54  1  0
 54 55  1  0
 55 56  1  0
 55 57  1  0
 57 58  2  0
 57 59  1  0
 59 60  1  0
 60 61  1  0
 60 62  1  0
 62 63  2  0
 62 64  1  0
 64 65  1  0
 65 66  1  0
 65 67  1  0
 67 68  2  0
 67 69  1  0
 69 70  1  0
 70 71  1  0
 70 72  1  0
 72 73  2  0
 72 74  1  0
 74 75  1  0
 75 76  1  0
 75 77  1  0
 77 78  2  0
 77 79  1  0
 79 80  1  0
 80 81  1  0
 80 82  1  0
 82 83  2  0
 82 84  1  0
 84 85  1  0
 85 86  1  0
 85 87  1  0
 87 88  2  0
 87 89  1  0
 89 90  1  0
 90 91  1  0
 91 92  1  0
 91 93  2  0
 90 94  1  0
 94 95  1  0
 95 96  1  0
 40  5  1  0
 14  9  1  0
 96 11  1  0
  1 97  1  0
  1 98  1  0
  1 99  1  0
  4100  1  0
  5101  1  1
  6102  1  0
  6103  1  0
  8104  1  0
  8105  1  0
 10106  1  0
 12107  1  0
 14108  1  0
 15109  1  0
 15110  1  0
 17111  1  0
 17112  1  0
 18113  1  6
 19114  1  0
 22115  1  6
 23116  1  0
 23117  1  0
 23118  1  0
 24119  1  0
 27120  1  6
 28121  1  0
 28122  1  0
 28123  1  0
 29124  1  0
 32125  1  6
 33126  1  0
 33127  1  0
 33128  1  0
 34129  1  0
 37130  1  6
 38131  1  0
 38132  1  0
 38133  1  0
 39134  1  0
 44135  1  0
 45136  1  6
 46137  1  0
 46138  1  0
 46139  1  0
 49140  1  0
 50141  1  1
 51142  1  0
 51143  1  0
 51144  1  0
 54145  1  0
 55146  1  6
 56147  1  0
 56148  1  0
 56149  1  0
 59150  1  0
 60151  1  1
 61152  1  0
 61153  1  0
 61154  1  0
 64155  1  0
 65156  1  6
 66157  1  0
 66158  1  0
 66159  1  0
 69160  1  0
 70161  1  6
 71162  1  0
 71163  1  0
 71164  1  0
 74165  1  0
 75166  1  6
 76167  1  0
 76168  1  0
 76169  1  0
 79170  1  0
 80171  1  1
 81172  1  0
 81173  1  0
 81174  1  0
 84175  1  0
 85176  1  6
 86177  1  0
 86178  1  0
 86179  1  0
 89180  1  0
 90181  1  6
 92182  1  0
 92183  1  0
 94184  1  0
 94185  1  0
 96186  1  0
 96187  1  0
M  END
