
     RDKit          3D

177179  0  0  0  0  0  0  0  0999 V2000
   -8.1852    7.1877    1.6073 C   0  0  0  0  0  0  0  0  0  0  0  0
   -8.0875    5.8100    1.0362 C   0  0  0  0  0  0  0  0  0  0  0  0
   -8.0712    4.8171    1.8112 O   0  0  0  0  0  0  0  0  0  0  0  0
   -8.0131    5.6330   -0.3849 N   0  0  0  0  0  0  0  0  0  0  0  0
   -8.1093    4.3222   -1.0428 C   0  0  2  0  0  0  0  0  0  0  0  0
   -7.2332    4.3223   -2.3136 C   0  0  0  0  0  0  0  0  0  0  0  0
   -5.4791    4.7227   -1.9776 S   0  0  0  0  0  0  0  0  0  0  0  0
   -5.0909    3.2473   -0.9645 C   0  0  0  0  0  0  0  0  0  0  0  0
   -3.6436    2.8670   -1.1141 C   0  0  0  0  0  0  0  0  0  0  0  0
   -2.6321    3.7507   -0.7074 C   0  0  0  0  0  0  0  0  0  0  0  0
   -1.2799    3.3814   -0.8084 C   0  0  0  0  0  0  0  0  0  0  0  0
   -0.9498    2.1123   -1.3128 C   0  0  0  0  0  0  0  0  0  0  0  0
   -1.9533    1.2132   -1.7144 C   0  0  0  0  0  0  0  0  0  0  0  0
   -3.2956    1.6118   -1.6405 C   0  0  0  0  0  0  0  0  0  0  0  0
   -1.5605   -0.0929   -2.3638 C   0  0  0  0  0  0  0  0  0  0  0  0
   -2.7023   -1.4717   -1.9802 S   0  0  0  0  0  0  0  0  0  0  0  0
   -2.4794   -1.4560   -0.1594 C   0  0  0  0  0  0  0  0  0  0  0  0
   -2.7549   -2.8544    0.4321 C   0  0  2  0  0  0  0  0  0  0  0  0
   -3.5034   -2.7313    1.6953 N   0  0  0  0  0  0  0  0  0  0  0  0
   -4.5860   -3.5860    2.1159 C   0  0  0  0  0  0  0  0  0  0  0  0
   -4.9434   -3.5493    3.3195 O   0  0  0  0  0  0  0  0  0  0  0  0
   -5.2416   -4.5862    1.1882 C   0  0  1  0  0  0  0  0  0  0  0  0
   -4.4554   -5.8941    1.1895 C   0  0  0  0  0  0  0  0  0  0  0  0
   -6.6196   -4.8621    1.6080 N   0  0  0  0  0  0  0  0  0  0  0  0
   -7.7245   -4.9064    0.6922 C   0  0  0  0  0  0  0  0  0  0  0  0
   -8.6169   -5.7842    0.8643 O   0  0  0  0  0  0  0  0  0  0  0  0
   -7.8629   -3.9230   -0.4460 C   0  0  1  0  0  0  0  0  0  0  0  0
   -7.4030   -4.5554   -1.7639 C   0  0  0  0  0  0  0  0  0  0  0  0
   -9.2671   -3.5195   -0.5636 N   0  0  0  0  0  0  0  0  0  0  0  0
   -9.7753   -2.1884   -0.3727 C   0  0  0  0  0  0  0  0  0  0  0  0
  -10.7562   -1.8239   -1.0736 O   0  0  0  0  0  0  0  0  0  0  0  0
   -9.2440   -1.2105    0.6536 C   0  0  1  0  0  0  0  0  0  0  0  0
   -8.6574   -1.8568    1.9182 C   0  0  0  0  0  0  0  0  0  0  0  0
   -8.2768   -0.3033    0.0318 N   0  0  0  0  0  0  0  0  0  0  0  0
   -8.6614    0.8443   -0.7490 C   0  0  0  0  0  0  0  0  0  0  0  0
   -7.9471    1.1635   -1.7335 O   0  0  0  0  0  0  0  0  0  0  0  0
   -9.8961    1.6619   -0.4306 C   0  0  1  0  0  0  0  0  0  0  0  0
   -9.8913    2.2189    1.0039 C   0  0  0  0  0  0  0  0  0  0  0  0
  -10.1250    2.7284   -1.4250 N   0  0  0  0  0  0  0  0  0  0  0  0
   -9.5511    4.0515   -1.4236 C   0  0  0  0  0  0  0  0  0  0  0  0
  -10.2433    5.0055   -1.8704 O   0  0  0  0  0  0  0  0  0  0  0  0
   -1.4709   -3.6237    0.6447 C   0  0  0  0  0  0  0  0  0  0  0  0
   -1.1286   -3.9784    1.8076 O   0  0  0  0  0  0  0  0  0  0  0  0
   -0.6464   -3.9709   -0.4811 N   0  0  0  0  0  0  0  0  0  0  0  0
    0.1197   -5.2243   -0.5691 C   0  0  2  0  0  0  0  0  0  0  0  0
   -0.8035   -6.4219   -0.3231 C   0  0  0  0  0  0  0  0  0  0  0  0
    1.3075   -5.2347    0.3737 C   0  0  0  0  0  0  0  0  0  0  0  0
    1.5438   -4.2300    1.0994 O   0  0  0  0  0  0  0  0  0  0  0  0
    2.1547   -6.3894    0.5025 N   0  0  0  0  0  0  0  0  0  0  0  0
    2.5805   -7.2266   -0.6283 C   0  0  2  0  0  0  0  0  0  0  0  0
    2.3884   -8.7003   -0.2596 C   0  0  0  0  0  0  0  0  0  0  0  0
    4.0302   -6.9606   -0.9635 C   0  0  0  0  0  0  0  0  0  0  0  0
    4.6138   -7.6843   -1.8164 O   0  0  0  0  0  0  0  0  0  0  0  0
    4.7479   -5.8925   -0.3262 N   0  0  0  0  0  0  0  0  0  0  0  0
    6.1821   -5.9740   -0.0272 C   0  0  2  0  0  0  0  0  0  0  0  0
    6.4759   -7.1911    0.8595 C   0  0  0  0  0  0  0  0  0  0  0  0
    6.6190   -4.7135    0.6785 C   0  0  0  0  0  0  0  0  0  0  0  0
    6.1198   -4.4508    1.8071 O   0  0  0  0  0  0  0  0  0  0  0  0
    7.5069   -3.7519    0.0831 N   0  0  0  0  0  0  0  0  0  0  0  0
    8.5165   -4.0582   -0.9448 C   0  0  2  0  0  0  0  0  0  0  0  0
    9.5314   -5.0767   -0.4038 C   0  0  0  0  0  0  0  0  0  0  0  0
    9.2445   -2.8132   -1.4238 C   0  0  0  0  0  0  0  0  0  0  0  0
   10.0860   -2.9157   -2.3582 O   0  0  0  0  0  0  0  0  0  0  0  0
    8.9630   -1.5148   -0.8830 N   0  0  0  0  0  0  0  0  0  0  0  0
    9.8508   -0.8731    0.0934 C   0  0  2  0  0  0  0  0  0  0  0  0
   10.3700   -1.8646    1.1458 C   0  0  0  0  0  0  0  0  0  0  0  0
    9.1137    0.2413    0.7909 C   0  0  0  0  0  0  0  0  0  0  0  0
    8.0717   -0.0219    1.4478 O   0  0  0  0  0  0  0  0  0  0  0  0
    9.6181    1.5841    0.8053 N   0  0  0  0  0  0  0  0  0  0  0  0
    9.8878    2.3573   -0.4143 C   0  0  2  0  0  0  0  0  0  0  0  0
   11.3811    2.3242   -0.7693 C   0  0  0  0  0  0  0  0  0  0  0  0
    9.4448    3.7829   -0.2025 C   0  0  0  0  0  0  0  0  0  0  0  0
    9.9467    4.4712    0.7270 O   0  0  0  0  0  0  0  0  0  0  0  0
    8.4299    4.3553   -1.0369 N   0  0  0  0  0  0  0  0  0  0  0  0
    7.2462    4.9780   -0.4504 C   0  0  2  0  0  0  0  0  0  0  0  0
    6.1485    3.9231   -0.3186 C   0  0  0  0  0  0  0  0  0  0  0  0
    6.8241    6.1775   -1.2664 C   0  0  0  0  0  0  0  0  0  0  0  0
    7.6888    7.0222   -1.6040 O   0  0  0  0  0  0  0  0  0  0  0  0
    5.4496    6.4069   -1.6212 N   0  0  0  0  0  0  0  0  0  0  0  0
    4.4447    6.9960   -0.7230 C   0  0  2  0  0  0  0  0  0  0  0  0
    5.0491    7.4142    0.6360 C   0  0  0  0  0  0  0  0  0  0  0  0
    3.2730    6.0444   -0.5967 C   0  0  0  0  0  0  0  0  0  0  0  0
    2.8542    5.4530   -1.6259 O   0  0  0  0  0  0  0  0  0  0  0  0
    2.6443    5.7660    0.6604 N   0  0  0  0  0  0  0  0  0  0  0  0
    1.8234    6.7634    1.3502 C   0  0  2  0  0  0  0  0  0  0  0  0
    1.9818    6.6473    2.8452 C   0  0  0  0  0  0  0  0  0  0  0  0
    1.6535    7.7538    3.6894 N   0  0  0  0  0  0  0  0  0  0  0  0
    2.4073    5.5787    3.3611 O   0  0  0  0  0  0  0  0  0  0  0  0
    0.3422    6.6707    0.9360 C   0  0  0  0  0  0  0  0  0  0  0  0
   -0.4082    5.0123    1.2291 S   0  0  0  0  0  0  0  0  0  0  0  0
   -0.1925    4.3600   -0.4705 C   0  0  0  0  0  0  0  0  0  0  0  0
   -7.2505    7.7466    1.3965 H   0  0  0  0  0  0  0  0  0  0  0  0
   -9.0403    7.7269    1.1438 H   0  0  0  0  0  0  0  0  0  0  0  0
   -8.3442    7.1522    2.7091 H   0  0  0  0  0  0  0  0  0  0  0  0
   -7.9977    6.4939   -0.9786 H   0  0  0  0  0  0  0  0  0  0  0  0
   -7.7414    3.5359   -0.3658 H   0  0  0  0  0  0  0  0  0  0  0  0
   -7.6219    5.0859   -3.0227 H   0  0  0  0  0  0  0  0  0  0  0  0
   -7.2947    3.3446   -2.8293 H   0  0  0  0  0  0  0  0  0  0  0  0
   -5.7378    2.3968   -1.2647 H   0  0  0  0  0  0  0  0  0  0  0  0
   -5.2939    3.4748    0.0999 H   0  0  0  0  0  0  0  0  0  0  0  0
   -2.8978    4.7283   -0.3249 H   0  0  0  0  0  0  0  0  0  0  0  0
    0.0960    1.8325   -1.4223 H   0  0  0  0  0  0  0  0  0  0  0  0
   -4.0772    0.9414   -1.9894 H   0  0  0  0  0  0  0  0  0  0  0  0
   -1.5532    0.0499   -3.4680 H   0  0  0  0  0  0  0  0  0  0  0  0
   -0.5326   -0.3906   -2.0619 H   0  0  0  0  0  0  0  0  0  0  0  0
   -3.2067   -0.7201    0.2421 H   0  0  0  0  0  0  0  0  0  0  0  0
   -1.4613   -1.1119    0.1104 H   0  0  0  0  0  0  0  0  0  0  0  0
   -3.3382   -3.4357   -0.3004 H   0  0  0  0  0  0  0  0  0  0  0  0
   -3.1386   -2.0483    2.3974 H   0  0  0  0  0  0  0  0  0  0  0  0
   -5.2527   -4.1823    0.1636 H   0  0  0  0  0  0  0  0  0  0  0  0
   -4.4664   -6.3583    2.2022 H   0  0  0  0  0  0  0  0  0  0  0  0
   -4.8974   -6.6075    0.4613 H   0  0  0  0  0  0  0  0  0  0  0  0
   -3.4010   -5.7172    0.9024 H   0  0  0  0  0  0  0  0  0  0  0  0
   -6.7660   -5.2908    2.5499 H   0  0  0  0  0  0  0  0  0  0  0  0
   -7.2249   -3.0363   -0.2606 H   0  0  0  0  0  0  0  0  0  0  0  0
   -7.4594   -3.7976   -2.5794 H   0  0  0  0  0  0  0  0  0  0  0  0
   -8.0470   -5.4180   -2.0407 H   0  0  0  0  0  0  0  0  0  0  0  0
   -6.3524   -4.9066   -1.6982 H   0  0  0  0  0  0  0  0  0  0  0  0
   -9.9381   -4.2255   -0.9446 H   0  0  0  0  0  0  0  0  0  0  0  0
  -10.1187   -0.6369    1.0144 H   0  0  0  0  0  0  0  0  0  0  0  0
   -8.6336   -1.1003    2.7373 H   0  0  0  0  0  0  0  0  0  0  0  0
   -7.6084   -2.1946    1.7665 H   0  0  0  0  0  0  0  0  0  0  0  0
   -9.2862   -2.7110    2.2560 H   0  0  0  0  0  0  0  0  0  0  0  0
   -7.2977   -0.6504   -0.0995 H   0  0  0  0  0  0  0  0  0  0  0  0
  -10.7636    0.9722   -0.5047 H   0  0  0  0  0  0  0  0  0  0  0  0
  -10.2789    1.4704    1.7210 H   0  0  0  0  0  0  0  0  0  0  0  0
   -8.8623    2.4785    1.3247 H   0  0  0  0  0  0  0  0  0  0  0  0
  -10.5394    3.1183    1.0835 H   0  0  0  0  0  0  0  0  0  0  0  0
  -10.9215    2.5763   -2.0906 H   0  0  0  0  0  0  0  0  0  0  0  0
   -0.8127   -3.4724   -1.3756 H   0  0  0  0  0  0  0  0  0  0  0  0
    0.5084   -5.3048   -1.6070 H   0  0  0  0  0  0  0  0  0  0  0  0
   -1.7374   -6.3130   -0.9166 H   0  0  0  0  0  0  0  0  0  0  0  0
   -0.3168   -7.3649   -0.6411 H   0  0  0  0  0  0  0  0  0  0  0  0
   -1.0657   -6.5033    0.7556 H   0  0  0  0  0  0  0  0  0  0  0  0
    2.6627   -6.5083    1.4097 H   0  0  0  0  0  0  0  0  0  0  0  0
    1.9761   -7.0076   -1.5301 H   0  0  0  0  0  0  0  0  0  0  0  0
    1.3373   -8.8838    0.0552 H   0  0  0  0  0  0  0  0  0  0  0  0
    2.6086   -9.3445   -1.1345 H   0  0  0  0  0  0  0  0  0  0  0  0
    3.0542   -8.9831    0.5821 H   0  0  0  0  0  0  0  0  0  0  0  0
    4.2195   -5.0227   -0.0776 H   0  0  0  0  0  0  0  0  0  0  0  0
    6.7300   -6.1004   -0.9830 H   0  0  0  0  0  0  0  0  0  0  0  0
    7.5411   -7.2024    1.1710 H   0  0  0  0  0  0  0  0  0  0  0  0
    6.2677   -8.1350    0.3124 H   0  0  0  0  0  0  0  0  0  0  0  0
    5.8411   -7.1700    1.7699 H   0  0  0  0  0  0  0  0  0  0  0  0
    7.4510   -2.7892    0.4907 H   0  0  0  0  0  0  0  0  0  0  0  0
    8.0080   -4.4881   -1.8382 H   0  0  0  0  0  0  0  0  0  0  0  0
    9.0672   -6.0833   -0.3290 H   0  0  0  0  0  0  0  0  0  0  0  0
   10.4083   -5.1651   -1.0827 H   0  0  0  0  0  0  0  0  0  0  0  0
    9.8838   -4.7790    0.6086 H   0  0  0  0  0  0  0  0  0  0  0  0
    8.4091   -0.8813   -1.5055 H   0  0  0  0  0  0  0  0  0  0  0  0
   10.7323   -0.4709   -0.4408 H   0  0  0  0  0  0  0  0  0  0  0  0
   11.0413   -2.6148    0.6687 H   0  0  0  0  0  0  0  0  0  0  0  0
    9.5270   -2.3917    1.6459 H   0  0  0  0  0  0  0  0  0  0  0  0
   10.9630   -1.3308    1.9204 H   0  0  0  0  0  0  0  0  0  0  0  0
    9.4829    2.1066    1.7037 H   0  0  0  0  0  0  0  0  0  0  0  0
    9.3093    1.9297   -1.2646 H   0  0  0  0  0  0  0  0  0  0  0  0
   11.6208    3.1208   -1.5109 H   0  0  0  0  0  0  0  0  0  0  0  0
   12.0053    2.4781    0.1418 H   0  0  0  0  0  0  0  0  0  0  0  0
   11.6495    1.3582   -1.2426 H   0  0  0  0  0  0  0  0  0  0  0  0
    8.5989    4.3871   -2.0744 H   0  0  0  0  0  0  0  0  0  0  0  0
    7.4968    5.3515    0.5651 H   0  0  0  0  0  0  0  0  0  0  0  0
    5.8176    3.5852   -1.3245 H   0  0  0  0  0  0  0  0  0  0  0  0
    5.2811    4.3193    0.2453 H   0  0  0  0  0  0  0  0  0  0  0  0
    6.5354    3.0403    0.2345 H   0  0  0  0  0  0  0  0  0  0  0  0
    5.2180    6.3685   -2.6394 H   0  0  0  0  0  0  0  0  0  0  0  0
    4.0628    7.9182   -1.2037 H   0  0  0  0  0  0  0  0  0  0  0  0
    4.3511    8.0663    1.1952 H   0  0  0  0  0  0  0  0  0  0  0  0
    5.2903    6.5241    1.2559 H   0  0  0  0  0  0  0  0  0  0  0  0
    5.9748    8.0131    0.4845 H   0  0  0  0  0  0  0  0  0  0  0  0
    2.4869    4.7599    0.8939 H   0  0  0  0  0  0  0  0  0  0  0  0
    2.1582    7.7819    1.0553 H   0  0  0  0  0  0  0  0  0  0  0  0
    1.7826    7.6836    4.7230 H   0  0  0  0  0  0  0  0  0  0  0  0
    1.3021    8.6521    3.2824 H   0  0  0  0  0  0  0  0  0  0  0  0
    0.2217    7.0000   -0.1145 H   0  0  0  0  0  0  0  0  0  0  0  0
   -0.2439    7.3988    1.5373 H   0  0  0  0  0  0  0  0  0  0  0  0
   -0.2140    5.1673   -1.2254 H   0  0  0  0  0  0  0  0  0  0  0  0
    0.7981    3.8695   -0.5236 H   0  0  0  0  0  0  0  0  0  0  0  0
  1  2  1  0
  2  3  2  0
  2  4  1  0
  4  5  1  0
  5  6  1  0
  6  7  1  0
  7  8  1  0
  8  9  1  0
  9 10  2  0
 10 11  1  0
 11 12  2  0
 12 13  1  0
 13 14  2  0
 13 15  1  0
 15 16  1  0
 16 17  1  0
 17 18  1  0
 18 19  1  0
 19 20  1  0
 20 21  2  0
 20 22  1  0
 22 23  1  0
 22 24  1  0
 24 25  1  0
 25 26  2  0
 25 27  1  0
 27 28  1  0
 27 29  1  0
 29 30  1  0
 30 31  2  0
 30 32  1  0
 32 33  1  0
 32 34  1  0
 34 35  1  0
 35 36  2  0
 35 37  1  0
 37 38  1  0
 37 39  1  0
 39 40  1  0
 40 41  2  0
 18 42  1  0
 42 43  2  0
 42 44  1  0
 44 45  1  0
 45 46  1  0
 45 47  1  0
 47 48  2  0
 47 49  1  0
 49 50  1  0
 50 51  1  0
 50 52  1  0
 52 53  2  0
 52 54  1  0
 54 55  1  0
 55 56  1  0
 55 57  1  0
 57 58  2  0
 57 59  1  0
 59 60  1  0
 60 61  1  0
 60 62  1  0
 62 63  2  0
 62 64  1  0
 64 65  1  0
 65 66  1  0
 65 67  1  0
 67 68  2  0
 67 69  1  0
 69 70  1  0
 70 71  1  0
 70 72  1  0
 72 73  2  0
 72 74  1  0
 74 75  1  0
 75 76  1  0
 75 77  1  0
 77 78  2  0
 77 79  1  0
 79 80  1  0
 80 81  1  0
 80 82  1  0
 82 83  2  0
 82 84  1  0
 84 85  1  0
 85 86  1  0
 86 87  1  0
 86 88  2  0
 85 89  1  0
 89 90  1  0
 90 91  1  0
 40  5  1  0
 14  9  1  0
 91 11  1  0
  1 92  1  0
  1 93  1  0
  1 94  1  0
  4 95  1  0
  5 96  1  1
  6 97  1  0
  6 98  1  0
  8 99  1  0
  8100  1  0
 10101  1  0
 12102  1  0
 14103  1  0
 15104  1  0
 15105  1  0
 17106  1  0
 17107  1  0
 18108  1  6
 19109  1  0
 22110  1  6
 23111  1  0
 23112  1  0
 23113  1  0
 24114  1  0
 27115  1  1
 28116  1  0
 28117  1  0
 28118  1  0
 29119  1  0
 32120  1  1
 33121  1  0
 33122  1  0
 33123  1  0
 34124  1  0
 37125  1  1
 38126  1  0
 38127  1  0
 38128  1  0
 39129  1  0
 44130  1  0
 45131  1  6
 46132  1  0
 46133  1  0
 46134  1  0
 49135  1  0
 50136  1  6
 51137  1  0
 51138  1  0
 51139  1  0
 54140  1  0
 55141  1  6
 56142  1  0
 56143  1  0
 56144  1  0
 59145  1  0
 60146  1  6
 61147  1  0
 61148  1  0
 61149  1  0
 64150  1  0
 65151  1  6
 66152  1  0
 66153  1  0
 66154  1  0
 69155  1  0
 70156  1  6
 71157  1  0
 71158  1  0
 71159  1  0
 74160  1  0
 75161  1  1
 76162  1  0
 76163  1  0
 76164  1  0
 79165  1  0
 80166  1  6
 81167  1  0
 81168  1  0
 81169  1  0
 84170  1  0
 85171  1  6
 87172  1  0
 87173  1  0
 89174  1  0
 89175  1  0
 91176  1  0
 91177  1  0
M  END
