
     RDKit          3D

177179  0  0  0  0  0  0  0  0999 V2000
   -7.3834    6.9742   -2.9881 C   0  0  0  0  0  0  0  0  0  0  0  0
   -8.0901    5.8171   -2.3494 C   0  0  0  0  0  0  0  0  0  0  0  0
   -9.3118    5.6316   -2.5996 O   0  0  0  0  0  0  0  0  0  0  0  0
   -7.3796    4.9228   -1.4734 N   0  0  0  0  0  0  0  0  0  0  0  0
   -8.0290    3.7546   -0.8622 C   0  0  1  0  0  0  0  0  0  0  0  0
   -6.9726    2.7941   -0.2688 C   0  0  0  0  0  0  0  0  0  0  0  0
   -6.0906    3.5103    1.1678 S   0  0  0  0  0  0  0  0  0  0  0  0
   -5.0735    2.0293    1.5127 C   0  0  0  0  0  0  0  0  0  0  0  0
   -3.7496    2.0998    0.8053 C   0  0  0  0  0  0  0  0  0  0  0  0
   -2.7410    2.9519    1.2817 C   0  0  0  0  0  0  0  0  0  0  0  0
   -1.4555    2.9186    0.7111 C   0  0  0  0  0  0  0  0  0  0  0  0
   -1.1950    2.0498   -0.3589 C   0  0  0  0  0  0  0  0  0  0  0  0
   -2.2048    1.2229   -0.8704 C   0  0  0  0  0  0  0  0  0  0  0  0
   -3.4828    1.2533   -0.2839 C   0  0  0  0  0  0  0  0  0  0  0  0
   -1.8868    0.2483   -1.9735 C   0  0  0  0  0  0  0  0  0  0  0  0
   -1.0349   -1.2303   -1.2969 S   0  0  0  0  0  0  0  0  0  0  0  0
   -2.5138   -1.9218   -0.4694 C   0  0  0  0  0  0  0  0  0  0  0  0
   -2.2946   -3.3750   -0.0384 C   0  0  2  0  0  0  0  0  0  0  0  0
   -3.5429   -3.8674    0.5569 N   0  0  0  0  0  0  0  0  0  0  0  0
   -4.1007   -5.1575    0.2608 C   0  0  0  0  0  0  0  0  0  0  0  0
   -3.5937   -5.8866   -0.6397 O   0  0  0  0  0  0  0  0  0  0  0  0
   -5.2868   -5.6581    1.0468 C   0  0  1  0  0  0  0  0  0  0  0  0
   -4.9173   -5.7818    2.5337 C   0  0  0  0  0  0  0  0  0  0  0  0
   -6.4330   -4.7568    0.8801 N   0  0  0  0  0  0  0  0  0  0  0  0
   -7.7510   -5.1207    1.3229 C   0  0  0  0  0  0  0  0  0  0  0  0
   -8.0203   -6.3331    1.5232 O   0  0  0  0  0  0  0  0  0  0  0  0
   -8.8493   -4.0904    1.5039 C   0  0  1  0  0  0  0  0  0  0  0  0
   -9.4433   -4.1865    2.9145 C   0  0  0  0  0  0  0  0  0  0  0  0
   -8.3633   -2.7283    1.2804 N   0  0  0  0  0  0  0  0  0  0  0  0
   -8.7471   -1.9594    0.1345 C   0  0  0  0  0  0  0  0  0  0  0  0
   -7.9975   -1.9485   -0.8785 O   0  0  0  0  0  0  0  0  0  0  0  0
  -10.0111   -1.1368    0.1369 C   0  0  1  0  0  0  0  0  0  0  0  0
  -11.2522   -2.0266    0.0659 C   0  0  0  0  0  0  0  0  0  0  0  0
  -10.0645   -0.3100    1.3501 N   0  0  0  0  0  0  0  0  0  0  0  0
  -10.4100    1.0884    1.3979 C   0  0  0  0  0  0  0  0  0  0  0  0
  -10.7507    1.5769    2.5083 O   0  0  0  0  0  0  0  0  0  0  0  0
  -10.4199    1.9846    0.1746 C   0  0  1  0  0  0  0  0  0  0  0  0
  -11.7719    1.9107   -0.5371 C   0  0  0  0  0  0  0  0  0  0  0  0
  -10.1649    3.3762    0.5718 N   0  0  0  0  0  0  0  0  0  0  0  0
   -9.0423    4.1910    0.1777 C   0  0  0  0  0  0  0  0  0  0  0  0
   -8.9176    5.3304    0.7037 O   0  0  0  0  0  0  0  0  0  0  0  0
   -1.1812   -3.4731    0.9932 C   0  0  0  0  0  0  0  0  0  0  0  0
   -1.3500   -2.8989    2.1034 O   0  0  0  0  0  0  0  0  0  0  0  0
    0.0612   -4.1769    0.7756 N   0  0  0  0  0  0  0  0  0  0  0  0
    0.3581   -5.1314   -0.3046 C   0  0  2  0  0  0  0  0  0  0  0  0
    0.1536   -6.5546    0.2246 C   0  0  0  0  0  0  0  0  0  0  0  0
    1.7548   -4.8767   -0.8368 C   0  0  0  0  0  0  0  0  0  0  0  0
    2.1922   -3.6934   -0.8508 O   0  0  0  0  0  0  0  0  0  0  0  0
    2.5450   -5.9254   -1.4232 N   0  0  0  0  0  0  0  0  0  0  0  0
    3.6317   -5.6313   -2.3677 C   0  0  2  0  0  0  0  0  0  0  0  0
    3.0503   -5.0809   -3.6746 C   0  0  0  0  0  0  0  0  0  0  0  0
    4.4293   -6.8840   -2.6540 C   0  0  0  0  0  0  0  0  0  0  0  0
    3.8366   -7.8751   -3.1679 O   0  0  0  0  0  0  0  0  0  0  0  0
    5.8395   -6.9898   -2.3899 N   0  0  0  0  0  0  0  0  0  0  0  0
    6.6191   -6.0547   -1.5631 C   0  0  2  0  0  0  0  0  0  0  0  0
    8.1091   -6.4280   -1.6331 C   0  0  0  0  0  0  0  0  0  0  0  0
    6.1349   -6.0924   -0.1305 C   0  0  0  0  0  0  0  0  0  0  0  0
    5.6844   -7.1740    0.3335 O   0  0  0  0  0  0  0  0  0  0  0  0
    6.1545   -4.9293    0.7191 N   0  0  0  0  0  0  0  0  0  0  0  0
    7.2633   -3.9593    0.7274 C   0  0  2  0  0  0  0  0  0  0  0  0
    8.4164   -4.5440    1.5584 C   0  0  0  0  0  0  0  0  0  0  0  0
    6.8117   -2.6281    1.2984 C   0  0  0  0  0  0  0  0  0  0  0  0
    5.6743   -2.5415    1.8394 O   0  0  0  0  0  0  0  0  0  0  0  0
    7.6326   -1.4437    1.2723 N   0  0  0  0  0  0  0  0  0  0  0  0
    8.9336   -1.3007    0.6100 C   0  0  2  0  0  0  0  0  0  0  0  0
   10.0275   -1.2047    1.6828 C   0  0  0  0  0  0  0  0  0  0  0  0
    8.8988   -0.1020   -0.3140 C   0  0  0  0  0  0  0  0  0  0  0  0
    7.8423    0.1202   -0.9719 O   0  0  0  0  0  0  0  0  0  0  0  0
   10.0369    0.7558   -0.4996 N   0  0  0  0  0  0  0  0  0  0  0  0
    9.9475    2.0205   -1.2297 C   0  0  2  0  0  0  0  0  0  0  0  0
   11.3138    2.4067   -1.8074 C   0  0  0  0  0  0  0  0  0  0  0  0
    9.4526    3.1108   -0.3171 C   0  0  0  0  0  0  0  0  0  0  0  0
   10.1086    3.4275    0.7117 O   0  0  0  0  0  0  0  0  0  0  0  0
    8.2496    3.8155   -0.6407 N   0  0  0  0  0  0  0  0  0  0  0  0
    8.1040    5.2772   -0.6305 C   0  0  2  0  0  0  0  0  0  0  0  0
    9.3935    5.9774   -1.0844 C   0  0  0  0  0  0  0  0  0  0  0  0
    7.6828    5.7683    0.7416 C   0  0  0  0  0  0  0  0  0  0  0  0
    8.4157    5.4997    1.7301 O   0  0  0  0  0  0  0  0  0  0  0  0
    6.5039    6.5711    0.9610 N   0  0  0  0  0  0  0  0  0  0  0  0
    5.4736    6.8559   -0.0455 C   0  0  2  0  0  0  0  0  0  0  0  0
    5.9374    7.9947   -0.9734 C   0  0  0  0  0  0  0  0  0  0  0  0
    4.1627    7.2012    0.6330 C   0  0  0  0  0  0  0  0  0  0  0  0
    3.5961    8.3074    0.4095 O   0  0  0  0  0  0  0  0  0  0  0  0
    3.5332    6.2425    1.4972 N   0  0  0  0  0  0  0  0  0  0  0  0
    2.0779    6.0314    1.5318 C   0  0  1  0  0  0  0  0  0  0  0  0
    1.3573    7.2918    1.9764 C   0  0  0  0  0  0  0  0  0  0  0  0
    0.7584    8.1971    1.0380 N   0  0  0  0  0  0  0  0  0  0  0  0
    1.3065    7.5697    3.2059 O   0  0  0  0  0  0  0  0  0  0  0  0
    1.6086    5.4508    0.1820 C   0  0  0  0  0  0  0  0  0  0  0  0
   -0.2110    5.2443    0.0738 S   0  0  0  0  0  0  0  0  0  0  0  0
   -0.3635    3.8204    1.2114 C   0  0  0  0  0  0  0  0  0  0  0  0
   -7.8538    7.9228   -2.6561 H   0  0  0  0  0  0  0  0  0  0  0  0
   -7.4608    6.8939   -4.0929 H   0  0  0  0  0  0  0  0  0  0  0  0
   -6.3088    6.9869   -2.7101 H   0  0  0  0  0  0  0  0  0  0  0  0
   -6.3656    5.1020   -1.2946 H   0  0  0  0  0  0  0  0  0  0  0  0
   -8.5551    3.2102   -1.6800 H   0  0  0  0  0  0  0  0  0  0  0  0
   -6.2316    2.5419   -1.0575 H   0  0  0  0  0  0  0  0  0  0  0  0
   -7.4668    1.8523    0.0432 H   0  0  0  0  0  0  0  0  0  0  0  0
   -5.6216    1.1040    1.2383 H   0  0  0  0  0  0  0  0  0  0  0  0
   -4.9045    1.9665    2.6021 H   0  0  0  0  0  0  0  0  0  0  0  0
   -2.9393    3.6214    2.1111 H   0  0  0  0  0  0  0  0  0  0  0  0
   -0.2025    2.0140   -0.7929 H   0  0  0  0  0  0  0  0  0  0  0  0
   -4.2519    0.5861   -0.6473 H   0  0  0  0  0  0  0  0  0  0  0  0
   -2.8021   -0.0621   -2.5279 H   0  0  0  0  0  0  0  0  0  0  0  0
   -1.2120    0.7318   -2.7167 H   0  0  0  0  0  0  0  0  0  0  0  0
   -2.7591   -1.3020    0.4179 H   0  0  0  0  0  0  0  0  0  0  0  0
   -3.3763   -1.8894   -1.1721 H   0  0  0  0  0  0  0  0  0  0  0  0
   -2.0805   -3.9426   -0.9554 H   0  0  0  0  0  0  0  0  0  0  0  0
   -3.9439   -3.3211    1.3515 H   0  0  0  0  0  0  0  0  0  0  0  0
   -5.5508   -6.6693    0.6660 H   0  0  0  0  0  0  0  0  0  0  0  0
   -5.7302   -6.3004    3.0862 H   0  0  0  0  0  0  0  0  0  0  0  0
   -3.9826   -6.3734    2.6622 H   0  0  0  0  0  0  0  0  0  0  0  0
   -4.7726   -4.7781    2.9908 H   0  0  0  0  0  0  0  0  0  0  0  0
   -6.2996   -3.8548    0.3611 H   0  0  0  0  0  0  0  0  0  0  0  0
   -9.6482   -4.3298    0.7653 H   0  0  0  0  0  0  0  0  0  0  0  0
   -9.8657   -5.1995    3.0967 H   0  0  0  0  0  0  0  0  0  0  0  0
  -10.2599   -3.4428    3.0369 H   0  0  0  0  0  0  0  0  0  0  0  0
   -8.6530   -3.9757    3.6715 H   0  0  0  0  0  0  0  0  0  0  0  0
   -7.5556   -2.3850    1.8518 H   0  0  0  0  0  0  0  0  0  0  0  0
  -10.0091   -0.5066   -0.7728 H   0  0  0  0  0  0  0  0  0  0  0  0
  -12.1527   -1.3928   -0.0731 H   0  0  0  0  0  0  0  0  0  0  0  0
  -11.3800   -2.6139    0.9981 H   0  0  0  0  0  0  0  0  0  0  0  0
  -11.1849   -2.7250   -0.7991 H   0  0  0  0  0  0  0  0  0  0  0  0
  -10.0126   -0.8036    2.2706 H   0  0  0  0  0  0  0  0  0  0  0  0
   -9.6435    1.6435   -0.5316 H   0  0  0  0  0  0  0  0  0  0  0  0
  -11.8013    2.6462   -1.3732 H   0  0  0  0  0  0  0  0  0  0  0  0
  -12.5995    2.1456    0.1726 H   0  0  0  0  0  0  0  0  0  0  0  0
  -11.9373    0.9002   -0.9629 H   0  0  0  0  0  0  0  0  0  0  0  0
  -10.8495    3.8157    1.2283 H   0  0  0  0  0  0  0  0  0  0  0  0
    0.7734   -4.1038    1.5367 H   0  0  0  0  0  0  0  0  0  0  0  0
   -0.3121   -4.9965   -1.1675 H   0  0  0  0  0  0  0  0  0  0  0  0
   -0.8375   -6.6383    0.7267 H   0  0  0  0  0  0  0  0  0  0  0  0
    0.1600   -7.2760   -0.6201 H   0  0  0  0  0  0  0  0  0  0  0  0
    0.9474   -6.8285    0.9558 H   0  0  0  0  0  0  0  0  0  0  0  0
    2.3671   -6.9225   -1.1500 H   0  0  0  0  0  0  0  0  0  0  0  0
    4.2825   -4.8474   -1.9346 H   0  0  0  0  0  0  0  0  0  0  0  0
    2.4886   -4.1456   -3.4871 H   0  0  0  0  0  0  0  0  0  0  0  0
    3.8681   -4.8628   -4.4013 H   0  0  0  0  0  0  0  0  0  0  0  0
    2.3505   -5.8130   -4.1315 H   0  0  0  0  0  0  0  0  0  0  0  0
    6.3237   -7.8346   -2.7738 H   0  0  0  0  0  0  0  0  0  0  0  0
    6.5152   -5.0296   -1.9820 H   0  0  0  0  0  0  0  0  0  0  0  0
    8.4198   -6.5461   -2.6979 H   0  0  0  0  0  0  0  0  0  0  0  0
    8.7424   -5.6315   -1.1875 H   0  0  0  0  0  0  0  0  0  0  0  0
    8.3036   -7.3861   -1.0987 H   0  0  0  0  0  0  0  0  0  0  0  0
    5.5949   -5.0139    1.6002 H   0  0  0  0  0  0  0  0  0  0  0  0
    7.5971   -3.7863   -0.3139 H   0  0  0  0  0  0  0  0  0  0  0  0
    9.3678   -4.0157    1.3541 H   0  0  0  0  0  0  0  0  0  0  0  0
    8.5783   -5.6132    1.3015 H   0  0  0  0  0  0  0  0  0  0  0  0
    8.1876   -4.4854    2.6453 H   0  0  0  0  0  0  0  0  0  0  0  0
    7.2886   -0.6155    1.8135 H   0  0  0  0  0  0  0  0  0  0  0  0
    9.1446   -2.1813   -0.0325 H   0  0  0  0  0  0  0  0  0  0  0  0
    9.9752   -0.2219    2.2011 H   0  0  0  0  0  0  0  0  0  0  0  0
    9.8891   -2.0000    2.4426 H   0  0  0  0  0  0  0  0  0  0  0  0
   11.0358   -1.3424    1.2332 H   0  0  0  0  0  0  0  0  0  0  0  0
   10.9460    0.5176   -0.0383 H   0  0  0  0  0  0  0  0  0  0  0  0
    9.2502    1.9136   -2.0903 H   0  0  0  0  0  0  0  0  0  0  0  0
   11.6673    1.6334   -2.5242 H   0  0  0  0  0  0  0  0  0  0  0  0
   12.0709    2.5076   -1.0007 H   0  0  0  0  0  0  0  0  0  0  0  0
   11.2469    3.3804   -2.3413 H   0  0  0  0  0  0  0  0  0  0  0  0
    7.4375    3.2451   -0.9971 H   0  0  0  0  0  0  0  0  0  0  0  0
    7.3322    5.5253   -1.3884 H   0  0  0  0  0  0  0  0  0  0  0  0
    9.7072    5.5870   -2.0792 H   0  0  0  0  0  0  0  0  0  0  0  0
    9.2255    7.0735   -1.1773 H   0  0  0  0  0  0  0  0  0  0  0  0
   10.2171    5.8172   -0.3616 H   0  0  0  0  0  0  0  0  0  0  0  0
    6.3589    6.9392    1.9268 H   0  0  0  0  0  0  0  0  0  0  0  0
    5.2808    5.9440   -0.6544 H   0  0  0  0  0  0  0  0  0  0  0  0
    6.1096    8.9239   -0.3878 H   0  0  0  0  0  0  0  0  0  0  0  0
    6.8837    7.7366   -1.4872 H   0  0  0  0  0  0  0  0  0  0  0  0
    5.1695    8.1952   -1.7554 H   0  0  0  0  0  0  0  0  0  0  0  0
    4.1365    5.5329    1.9820 H   0  0  0  0  0  0  0  0  0  0  0  0
    1.8658    5.2578    2.3045 H   0  0  0  0  0  0  0  0  0  0  0  0
    0.2450    9.0428    1.3740 H   0  0  0  0  0  0  0  0  0  0  0  0
    0.7867    8.0167    0.0136 H   0  0  0  0  0  0  0  0  0  0  0  0
    2.0949    4.4692    0.0186 H   0  0  0  0  0  0  0  0  0  0  0  0
    1.9275    6.0970   -0.6551 H   0  0  0  0  0  0  0  0  0  0  0  0
    0.5826    3.2405    1.2842 H   0  0  0  0  0  0  0  0  0  0  0  0
   -0.5979    4.1996    2.2298 H   0  0  0  0  0  0  0  0  0  0  0  0
  1  2  1  0
  2  3  2  0
  2  4  1  0
  4  5  1  0
  5  6  1  0
  6  7  1  0
  7  8  1  0
  8  9  1  0
  9 10  2  0
 10 11  1  0
 11 12  2  0
 12 13  1  0
 13 14  2  0
 13 15  1  0
 15 16  1  0
 16 17  1  0
 17 18  1  0
 18 19  1  0
 19 20  1  0
 20 21  2  0
 20 22  1  0
 22 23  1  0
 22 24  1  0
 24 25  1  0
 25 26  2  0
 25 27  1  0
 27 28  1  0
 27 29  1  0
 29 30  1  0
 30 31  2  0
 30 32  1  0
 32 33  1  0
 32 34  1  0
 34 35  1  0
 35 36  2  0
 35 37  1  0
 37 38  1  0
 37 39  1  0
 39 40  1  0
 40 41  2  0
 18 42  1  0
 42 43  2  0
 42 44  1  0
 44 45  1  0
 45 46  1  0
 45 47  1  0
 47 48  2  0
 47 49  1  0
 49 50  1  0
 50 51  1  0
 50 52  1  0
 52 53  2  0
 52 54  1  0
 54 55  1  0
 55 56  1  0
 55 57  1  0
 57 58  2  0
 57 59  1  0
 59 60  1  0
 60 61  1  0
 60 62  1  0
 62 63  2  0
 62 64  1  0
 64 65  1  0
 65 66  1  0
 65 67  1  0
 67 68  2  0
 67 69  1  0
 69 70  1  0
 70 71  1  0
 70 72  1  0
 72 73  2  0
 72 74  1  0
 74 75  1  0
 75 76  1  0
 75 77  1  0
 77 78  2  0
 77 79  1  0
 79 80  1  0
 80 81  1  0
 80 82  1  0
 82 83  2  0
 82 84  1  0
 84 85  1  0
 85 86  1  0
 86 87  1  0
 86 88  2  0
 85 89  1  0
 89 90  1  0
 90 91  1  0
 40  5  1  0
 14  9  1  0
 91 11  1  0
  1 92  1  0
  1 93  1  0
  1 94  1  0
  4 95  1  0
  5 96  1  6
  6 97  1  0
  6 98  1  0
  8 99  1  0
  8100  1  0
 10101  1  0
 12102  1  0
 14103  1  0
 15104  1  0
 15105  1  0
 17106  1  0
 17107  1  0
 18108  1  6
 19109  1  0
 22110  1  6
 23111  1  0
 23112  1  0
 23113  1  0
 24114  1  0
 27115  1  6
 28116  1  0
 28117  1  0
 28118  1  0
 29119  1  0
 32120  1  6
 33121  1  0
 33122  1  0
 33123  1  0
 34124  1  0
 37125  1  6
 38126  1  0
 38127  1  0
 38128  1  0
 39129  1  0
 44130  1  0
 45131  1  6
 46132  1  0
 46133  1  0
 46134  1  0
 49135  1  0
 50136  1  1
 51137  1  0
 51138  1  0
 51139  1  0
 54140  1  0
 55141  1  6
 56142  1  0
 56143  1  0
 56144  1  0
 59145  1  0
 60146  1  6
 61147  1  0
 61148  1  0
 61149  1  0
 64150  1  0
 65151  1  6
 66152  1  0
 66153  1  0
 66154  1  0
 69155  1  0
 70156  1  6
 71157  1  0
 71158  1  0
 71159  1  0
 74160  1  0
 75161  1  6
 76162  1  0
 76163  1  0
 76164  1  0
 79165  1  0
 80166  1  6
 81167  1  0
 81168  1  0
 81169  1  0
 84170  1  0
 85171  1  1
 87172  1  0
 87173  1  0
 89174  1  0
 89175  1  0
 91176  1  0
 91177  1  0
M  END
