
     RDKit          3D

177179  0  0  0  0  0  0  0  0999 V2000
   -9.3751    5.6813    1.2113 C   0  0  0  0  0  0  0  0  0  0  0  0
   -8.3081    5.0676    0.3617 C   0  0  0  0  0  0  0  0  0  0  0  0
   -8.0465    5.5800   -0.7571 O   0  0  0  0  0  0  0  0  0  0  0  0
   -7.5788    3.9264    0.8414 N   0  0  0  0  0  0  0  0  0  0  0  0
   -6.9852    2.8604    0.0234 C   0  0  2  0  0  0  0  0  0  0  0  0
   -5.4617    3.0163   -0.0958 C   0  0  0  0  0  0  0  0  0  0  0  0
   -4.9487    4.6705   -0.7134 S   0  0  0  0  0  0  0  0  0  0  0  0
   -4.0717    4.1114   -2.2219 C   0  0  0  0  0  0  0  0  0  0  0  0
   -2.9179    3.2128   -1.8749 C   0  0  0  0  0  0  0  0  0  0  0  0
   -1.8302    3.7102   -1.1392 C   0  0  0  0  0  0  0  0  0  0  0  0
   -0.7908    2.8578   -0.7240 C   0  0  0  0  0  0  0  0  0  0  0  0
   -0.8135    1.5089   -1.1281 C   0  0  0  0  0  0  0  0  0  0  0  0
   -1.8658    1.0192   -1.9157 C   0  0  0  0  0  0  0  0  0  0  0  0
   -2.9171    1.8712   -2.2757 C   0  0  0  0  0  0  0  0  0  0  0  0
   -1.8739   -0.4067   -2.3849 C   0  0  0  0  0  0  0  0  0  0  0  0
   -3.0209   -1.4134   -1.3819 S   0  0  0  0  0  0  0  0  0  0  0  0
   -1.8699   -1.7042    0.0020 C   0  0  0  0  0  0  0  0  0  0  0  0
   -2.4491   -2.7556    0.9513 C   0  0  2  0  0  0  0  0  0  0  0  0
   -3.5731   -2.2002    1.7165 N   0  0  0  0  0  0  0  0  0  0  0  0
   -4.6232   -3.0195    2.2601 C   0  0  0  0  0  0  0  0  0  0  0  0
   -4.9883   -2.8220    3.4459 O   0  0  0  0  0  0  0  0  0  0  0  0
   -5.2787   -4.1197    1.4546 C   0  0  1  0  0  0  0  0  0  0  0  0
   -4.6051   -5.4630    1.7387 C   0  0  0  0  0  0  0  0  0  0  0  0
   -6.7038   -4.2274    1.7862 N   0  0  0  0  0  0  0  0  0  0  0  0
   -7.6546   -4.7825    0.8690 C   0  0  0  0  0  0  0  0  0  0  0  0
   -8.3826   -5.7424    1.2477 O   0  0  0  0  0  0  0  0  0  0  0  0
   -7.8223   -4.2276   -0.5212 C   0  0  1  0  0  0  0  0  0  0  0  0
   -7.0772   -5.0987   -1.5399 C   0  0  0  0  0  0  0  0  0  0  0  0
   -9.2493   -4.1707   -0.8624 N   0  0  0  0  0  0  0  0  0  0  0  0
  -10.0061   -2.9503   -0.8669 C   0  0  0  0  0  0  0  0  0  0  0  0
  -10.6214   -2.6204   -1.9187 O   0  0  0  0  0  0  0  0  0  0  0  0
  -10.1592   -2.0838    0.3650 C   0  0  1  0  0  0  0  0  0  0  0  0
  -10.6795   -2.8909    1.5570 C   0  0  0  0  0  0  0  0  0  0  0  0
   -8.8969   -1.4158    0.6872 N   0  0  0  0  0  0  0  0  0  0  0  0
   -8.3551   -0.3590   -0.1203 C   0  0  0  0  0  0  0  0  0  0  0  0
   -7.1155   -0.3403   -0.3388 O   0  0  0  0  0  0  0  0  0  0  0  0
   -9.2532    0.7096   -0.7101 C   0  0  1  0  0  0  0  0  0  0  0  0
  -10.0069    1.5117    0.3619 C   0  0  0  0  0  0  0  0  0  0  0  0
   -8.5411    1.5919   -1.6460 N   0  0  0  0  0  0  0  0  0  0  0  0
   -7.6473    2.6800   -1.3310 C   0  0  0  0  0  0  0  0  0  0  0  0
   -7.3719    3.4896   -2.2576 O   0  0  0  0  0  0  0  0  0  0  0  0
   -1.3980   -3.2389    1.9068 C   0  0  0  0  0  0  0  0  0  0  0  0
   -0.9074   -2.4489    2.7624 O   0  0  0  0  0  0  0  0  0  0  0  0
   -0.9726   -4.6040    1.8962 N   0  0  0  0  0  0  0  0  0  0  0  0
   -0.1410   -5.1543    0.8220 C   0  0  2  0  0  0  0  0  0  0  0  0
   -0.9935   -6.0684   -0.0637 C   0  0  0  0  0  0  0  0  0  0  0  0
    1.0240   -5.9249    1.4068 C   0  0  0  0  0  0  0  0  0  0  0  0
    0.9281   -6.3879    2.5737 O   0  0  0  0  0  0  0  0  0  0  0  0
    2.2491   -6.1491    0.6931 N   0  0  0  0  0  0  0  0  0  0  0  0
    2.4442   -5.9616   -0.7521 C   0  0  2  0  0  0  0  0  0  0  0  0
    2.3839   -7.3290   -1.4467 C   0  0  0  0  0  0  0  0  0  0  0  0
    3.7885   -5.3132   -1.0280 C   0  0  0  0  0  0  0  0  0  0  0  0
    4.1706   -5.1591   -2.2220 O   0  0  0  0  0  0  0  0  0  0  0  0
    4.6484   -4.9116    0.0505 N   0  0  0  0  0  0  0  0  0  0  0  0
    6.0784   -5.2402    0.0671 C   0  0  2  0  0  0  0  0  0  0  0  0
    6.2741   -6.7484   -0.1637 C   0  0  0  0  0  0  0  0  0  0  0  0
    6.6725   -4.8670    1.4074 C   0  0  0  0  0  0  0  0  0  0  0  0
    6.1352   -5.3383    2.4489 O   0  0  0  0  0  0  0  0  0  0  0  0
    7.8250   -4.0152    1.5607 N   0  0  0  0  0  0  0  0  0  0  0  0
    8.6219   -3.4248    0.4728 C   0  0  2  0  0  0  0  0  0  0  0  0
    9.4527   -4.5099   -0.2282 C   0  0  0  0  0  0  0  0  0  0  0  0
    9.5600   -2.3701    1.0207 C   0  0  0  0  0  0  0  0  0  0  0  0
   10.2082   -2.6155    2.0760 O   0  0  0  0  0  0  0  0  0  0  0  0
    9.7782   -1.1100    0.3657 N   0  0  0  0  0  0  0  0  0  0  0  0
    9.5010   -0.8473   -1.0526 C   0  0  2  0  0  0  0  0  0  0  0  0
   10.6508   -0.0711   -1.6925 C   0  0  0  0  0  0  0  0  0  0  0  0
    8.1873   -0.1175   -1.2404 C   0  0  0  0  0  0  0  0  0  0  0  0
    7.5981   -0.2189   -2.3520 O   0  0  0  0  0  0  0  0  0  0  0  0
    7.5595    0.6315   -0.1915 N   0  0  0  0  0  0  0  0  0  0  0  0
    8.2202    1.7339    0.5149 C   0  0  2  0  0  0  0  0  0  0  0  0
    7.7386    1.7508    1.9711 C   0  0  0  0  0  0  0  0  0  0  0  0
    7.9274    3.0552   -0.1626 C   0  0  0  0  0  0  0  0  0  0  0  0
    7.1796    3.0901   -1.1716 O   0  0  0  0  0  0  0  0  0  0  0  0
    8.4928    4.2775    0.3507 N   0  0  0  0  0  0  0  0  0  0  0  0
    8.4754    5.5477   -0.3928 C   0  0  2  0  0  0  0  0  0  0  0  0
    9.1234    6.6702    0.4208 C   0  0  0  0  0  0  0  0  0  0  0  0
    7.0753    5.9318   -0.8136 C   0  0  0  0  0  0  0  0  0  0  0  0
    6.7915    5.9360   -2.0416 O   0  0  0  0  0  0  0  0  0  0  0  0
    6.0794    6.3177    0.1510 N   0  0  0  0  0  0  0  0  0  0  0  0
    4.8210    6.9389   -0.2735 C   0  0  2  0  0  0  0  0  0  0  0  0
    5.0745    8.3710   -0.7625 C   0  0  0  0  0  0  0  0  0  0  0  0
    3.8168    6.9498    0.8446 C   0  0  0  0  0  0  0  0  0  0  0  0
    4.0498    7.5933    1.9056 O   0  0  0  0  0  0  0  0  0  0  0  0
    2.5685    6.2747    0.6742 N   0  0  0  0  0  0  0  0  0  0  0  0
    1.2953    6.9252    1.0115 C   0  0  1  0  0  0  0  0  0  0  0  0
    1.2357    8.3062    0.3996 C   0  0  0  0  0  0  0  0  0  0  0  0
    1.3694    8.4863   -1.0153 N   0  0  0  0  0  0  0  0  0  0  0  0
    1.0774    9.3135    1.1393 O   0  0  0  0  0  0  0  0  0  0  0  0
    0.1102    6.1002    0.4890 C   0  0  0  0  0  0  0  0  0  0  0  0
   -0.0735    4.5137    1.3958 S   0  0  0  0  0  0  0  0  0  0  0  0
    0.4072    3.3909    0.0239 C   0  0  0  0  0  0  0  0  0  0  0  0
  -10.3314    5.7163    0.6485 H   0  0  0  0  0  0  0  0  0  0  0  0
   -9.5336    5.0889    2.1357 H   0  0  0  0  0  0  0  0  0  0  0  0
   -9.0746    6.7136    1.4932 H   0  0  0  0  0  0  0  0  0  0  0  0
   -7.5018    3.8126    1.8809 H   0  0  0  0  0  0  0  0  0  0  0  0
   -7.1195    1.9232    0.5922 H   0  0  0  0  0  0  0  0  0  0  0  0
   -5.0795    2.1911   -0.7282 H   0  0  0  0  0  0  0  0  0  0  0  0
   -5.0014    2.8740    0.9035 H   0  0  0  0  0  0  0  0  0  0  0  0
   -4.7868    3.5966   -2.8953 H   0  0  0  0  0  0  0  0  0  0  0  0
   -3.6767    4.9972   -2.7581 H   0  0  0  0  0  0  0  0  0  0  0  0
   -1.8152    4.7646   -0.8907 H   0  0  0  0  0  0  0  0  0  0  0  0
   -0.0018    0.8513   -0.8546 H   0  0  0  0  0  0  0  0  0  0  0  0
   -3.7378    1.4823   -2.8670 H   0  0  0  0  0  0  0  0  0  0  0  0
   -2.2257   -0.4380   -3.4393 H   0  0  0  0  0  0  0  0  0  0  0  0
   -0.8567   -0.8400   -2.3796 H   0  0  0  0  0  0  0  0  0  0  0  0
   -1.6767   -0.7548    0.5467 H   0  0  0  0  0  0  0  0  0  0  0  0
   -0.9097   -2.0853   -0.4138 H   0  0  0  0  0  0  0  0  0  0  0  0
   -2.7909   -3.6084    0.3345 H   0  0  0  0  0  0  0  0  0  0  0  0
   -3.4233   -1.2734    2.1750 H   0  0  0  0  0  0  0  0  0  0  0  0
   -5.1591   -3.8765    0.3790 H   0  0  0  0  0  0  0  0  0  0  0  0
   -3.5824   -5.4894    1.3221 H   0  0  0  0  0  0  0  0  0  0  0  0
   -4.5474   -5.6459    2.8358 H   0  0  0  0  0  0  0  0  0  0  0  0
   -5.1825   -6.2856    1.2633 H   0  0  0  0  0  0  0  0  0  0  0  0
   -6.9576   -4.2952    2.7962 H   0  0  0  0  0  0  0  0  0  0  0  0
   -7.3817   -3.2090   -0.5628 H   0  0  0  0  0  0  0  0  0  0  0  0
   -7.4626   -6.1379   -1.5280 H   0  0  0  0  0  0  0  0  0  0  0  0
   -5.9883   -5.1233   -1.3286 H   0  0  0  0  0  0  0  0  0  0  0  0
   -7.2137   -4.6799   -2.5603 H   0  0  0  0  0  0  0  0  0  0  0  0
   -9.6732   -4.9912   -1.3507 H   0  0  0  0  0  0  0  0  0  0  0  0
  -10.9355   -1.3204    0.1606 H   0  0  0  0  0  0  0  0  0  0  0  0
  -10.8481   -2.2120    2.4218 H   0  0  0  0  0  0  0  0  0  0  0  0
  -11.6467   -3.3796    1.3032 H   0  0  0  0  0  0  0  0  0  0  0  0
   -9.9592   -3.6756    1.8644 H   0  0  0  0  0  0  0  0  0  0  0  0
   -8.2478   -1.8799    1.3616 H   0  0  0  0  0  0  0  0  0  0  0  0
  -10.0267    0.1799   -1.3093 H   0  0  0  0  0  0  0  0  0  0  0  0
  -10.7422    0.8678    0.8871 H   0  0  0  0  0  0  0  0  0  0  0  0
   -9.3223    1.9299    1.1223 H   0  0  0  0  0  0  0  0  0  0  0  0
  -10.5635    2.3428   -0.1197 H   0  0  0  0  0  0  0  0  0  0  0  0
   -8.7845    1.4812   -2.6581 H   0  0  0  0  0  0  0  0  0  0  0  0
   -1.3612   -5.2382    2.6289 H   0  0  0  0  0  0  0  0  0  0  0  0
    0.2529   -4.3164    0.2085 H   0  0  0  0  0  0  0  0  0  0  0  0
   -1.4227   -6.8994    0.5366 H   0  0  0  0  0  0  0  0  0  0  0  0
   -1.8195   -5.4964   -0.5244 H   0  0  0  0  0  0  0  0  0  0  0  0
   -0.3955   -6.4992   -0.8930 H   0  0  0  0  0  0  0  0  0  0  0  0
    2.9980   -6.6691    1.2100 H   0  0  0  0  0  0  0  0  0  0  0  0
    1.6634   -5.3067   -1.1819 H   0  0  0  0  0  0  0  0  0  0  0  0
    3.2697   -7.9432   -1.1680 H   0  0  0  0  0  0  0  0  0  0  0  0
    1.4750   -7.8794   -1.1437 H   0  0  0  0  0  0  0  0  0  0  0  0
    2.3745   -7.2044   -2.5533 H   0  0  0  0  0  0  0  0  0  0  0  0
    4.2038   -4.4905    0.8987 H   0  0  0  0  0  0  0  0  0  0  0  0
    6.5719   -4.6957   -0.7640 H   0  0  0  0  0  0  0  0  0  0  0  0
    5.9512   -7.0328   -1.1887 H   0  0  0  0  0  0  0  0  0  0  0  0
    5.6704   -7.3351    0.5654 H   0  0  0  0  0  0  0  0  0  0  0  0
    7.3410   -7.0332   -0.0496 H   0  0  0  0  0  0  0  0  0  0  0  0
    8.0978   -3.8123    2.5518 H   0  0  0  0  0  0  0  0  0  0  0  0
    7.9310   -2.9508   -0.2560 H   0  0  0  0  0  0  0  0  0  0  0  0
   10.1321   -5.0061    0.4966 H   0  0  0  0  0  0  0  0  0  0  0  0
   10.0627   -4.0638   -1.0432 H   0  0  0  0  0  0  0  0  0  0  0  0
    8.8038   -5.2818   -0.6805 H   0  0  0  0  0  0  0  0  0  0  0  0
   10.2990   -0.3818    0.9138 H   0  0  0  0  0  0  0  0  0  0  0  0
    9.4322   -1.8156   -1.5965 H   0  0  0  0  0  0  0  0  0  0  0  0
   11.6082   -0.6073   -1.5188 H   0  0  0  0  0  0  0  0  0  0  0  0
   10.7281    0.9565   -1.2789 H   0  0  0  0  0  0  0  0  0  0  0  0
   10.4906   -0.0015   -2.7898 H   0  0  0  0  0  0  0  0  0  0  0  0
    6.5136    0.6226   -0.1794 H   0  0  0  0  0  0  0  0  0  0  0  0
    9.3176    1.5968    0.5127 H   0  0  0  0  0  0  0  0  0  0  0  0
    7.9319    0.7590    2.4380 H   0  0  0  0  0  0  0  0  0  0  0  0
    8.2790    2.5160    2.5623 H   0  0  0  0  0  0  0  0  0  0  0  0
    6.6494    1.9589    2.0206 H   0  0  0  0  0  0  0  0  0  0  0  0
    9.0791    4.2248    1.2159 H   0  0  0  0  0  0  0  0  0  0  0  0
    9.0887    5.4000   -1.3063 H   0  0  0  0  0  0  0  0  0  0  0  0
    8.6768    6.7374    1.4357 H   0  0  0  0  0  0  0  0  0  0  0  0
   10.2153    6.4836    0.5333 H   0  0  0  0  0  0  0  0  0  0  0  0
    8.9898    7.6528   -0.0908 H   0  0  0  0  0  0  0  0  0  0  0  0
    6.3282    6.2867    1.1677 H   0  0  0  0  0  0  0  0  0  0  0  0
    4.4012    6.3480   -1.1139 H   0  0  0  0  0  0  0  0  0  0  0  0
    5.8239    8.3854   -1.5832 H   0  0  0  0  0  0  0  0  0  0  0  0
    4.1318    8.8159   -1.1490 H   0  0  0  0  0  0  0  0  0  0  0  0
    5.4453    9.0031    0.0685 H   0  0  0  0  0  0  0  0  0  0  0  0
    2.6203    5.2281    0.7117 H   0  0  0  0  0  0  0  0  0  0  0  0
    1.2104    7.0036    2.1149 H   0  0  0  0  0  0  0  0  0  0  0  0
    1.5719    7.6721   -1.6423 H   0  0  0  0  0  0  0  0  0  0  0  0
    1.2549    9.4332   -1.4406 H   0  0  0  0  0  0  0  0  0  0  0  0
    0.2005    5.9380   -0.6078 H   0  0  0  0  0  0  0  0  0  0  0  0
   -0.8309    6.6685    0.6436 H   0  0  0  0  0  0  0  0  0  0  0  0
    1.0962    3.8821   -0.6931 H   0  0  0  0  0  0  0  0  0  0  0  0
    0.9685    2.5517    0.4876 H   0  0  0  0  0  0  0  0  0  0  0  0
  1  2  1  0
  2  3  2  0
  2  4  1  0
  4  5  1  0
  5  6  1  0
  6  7  1  0
  7  8  1  0
  8  9  1  0
  9 10  2  0
 10 11  1  0
 11 12  2  0
 12 13  1  0
 13 14  2  0
 13 15  1  0
 15 16  1  0
 16 17  1  0
 17 18  1  0
 18 19  1  0
 19 20  1  0
 20 21  2  0
 20 22  1  0
 22 23  1  0
 22 24  1  0
 24 25  1  0
 25 26  2  0
 25 27  1  0
 27 28  1  0
 27 29  1  0
 29 30  1  0
 30 31  2  0
 30 32  1  0
 32 33  1  0
 32 34  1  0
 34 35  1  0
 35 36  2  0
 35 37  1  0
 37 38  1  0
 37 39  1  0
 39 40  1  0
 40 41  2  0
 18 42  1  0
 42 43  2  0
 42 44  1  0
 44 45  1  0
 45 46  1  0
 45 47  1  0
 47 48  2  0
 47 49  1  0
 49 50  1  0
 50 51  1  0
 50 52  1  0
 52 53  2  0
 52 54  1  0
 54 55  1  0
 55 56  1  0
 55 57  1  0
 57 58  2  0
 57 59  1  0
 59 60  1  0
 60 61  1  0
 60 62  1  0
 62 63  2  0
 62 64  1  0
 64 65  1  0
 65 66  1  0
 65 67  1  0
 67 68  2  0
 67 69  1  0
 69 70  1  0
 70 71  1  0
 70 72  1  0
 72 73  2  0
 72 74  1  0
 74 75  1  0
 75 76  1  0
 75 77  1  0
 77 78  2  0
 77 79  1  0
 79 80  1  0
 80 81  1  0
 80 82  1  0
 82 83  2  0
 82 84  1  0
 84 85  1  0
 85 86  1  0
 86 87  1  0
 86 88  2  0
 85 89  1  0
 89 90  1  0
 90 91  1  0
 40  5  1  0
 14  9  1  0
 91 11  1  0
  1 92  1  0
  1 93  1  0
  1 94  1  0
  4 95  1  0
  5 96  1  1
  6 97  1  0
  6 98  1  0
  8 99  1  0
  8100  1  0
 10101  1  0
 12102  1  0
 14103  1  0
 15104  1  0
 15105  1  0
 17106  1  0
 17107  1  0
 18108  1  6
 19109  1  0
 22110  1  6
 23111  1  0
 23112  1  0
 23113  1  0
 24114  1  0
 27115  1  1
 28116  1  0
 28117  1  0
 28118  1  0
 29119  1  0
 32120  1  6
 33121  1  0
 33122  1  0
 33123  1  0
 34124  1  0
 37125  1  6
 38126  1  0
 38127  1  0
 38128  1  0
 39129  1  0
 44130  1  0
 45131  1  6
 46132  1  0
 46133  1  0
 46134  1  0
 49135  1  0
 50136  1  6
 51137  1  0
 51138  1  0
 51139  1  0
 54140  1  0
 55141  1  6
 56142  1  0
 56143  1  0
 56144  1  0
 59145  1  0
 60146  1  6
 61147  1  0
 61148  1  0
 61149  1  0
 64150  1  0
 65151  1  6
 66152  1  0
 66153  1  0
 66154  1  0
 69155  1  0
 70156  1  1
 71157  1  0
 71158  1  0
 71159  1  0
 74160  1  0
 75161  1  6
 76162  1  0
 76163  1  0
 76164  1  0
 79165  1  0
 80166  1  6
 81167  1  0
 81168  1  0
 81169  1  0
 84170  1  0
 85171  1  1
 87172  1  0
 87173  1  0
 89174  1  0
 89175  1  0
 91176  1  0
 91177  1  0
M  END
