
     RDKit          3D

167169  0  0  0  0  0  0  0  0999 V2000
   -9.5419    6.3631    2.0168 C   0  0  0  0  0  0  0  0  0  0  0  0
   -8.8314    5.1322    1.5551 C   0  0  0  0  0  0  0  0  0  0  0  0
   -8.6826    4.1760    2.3598 O   0  0  0  0  0  0  0  0  0  0  0  0
   -8.3247    5.0417    0.2111 N   0  0  0  0  0  0  0  0  0  0  0  0
   -7.6483    3.8357   -0.2860 C   0  0  2  0  0  0  0  0  0  0  0  0
   -6.6015    4.2029   -1.3498 C   0  0  0  0  0  0  0  0  0  0  0  0
   -5.3170    5.3174   -0.6708 S   0  0  0  0  0  0  0  0  0  0  0  0
   -4.3677    4.0535    0.2570 C   0  0  0  0  0  0  0  0  0  0  0  0
   -3.0840    3.6974   -0.4475 C   0  0  0  0  0  0  0  0  0  0  0  0
   -2.1583    4.7000   -0.7555 C   0  0  0  0  0  0  0  0  0  0  0  0
   -0.8798    4.3616   -1.2214 C   0  0  0  0  0  0  0  0  0  0  0  0
   -0.5403    3.0074   -1.4054 C   0  0  0  0  0  0  0  0  0  0  0  0
   -1.4883    2.0018   -1.1603 C   0  0  0  0  0  0  0  0  0  0  0  0
   -2.7550    2.3515   -0.6749 C   0  0  0  0  0  0  0  0  0  0  0  0
   -1.1062    0.5538   -1.2752 C   0  0  0  0  0  0  0  0  0  0  0  0
   -0.5247   -0.0185    0.3527 S   0  0  0  0  0  0  0  0  0  0  0  0
   -0.0558   -1.7160   -0.1581 C   0  0  0  0  0  0  0  0  0  0  0  0
   -1.2755   -2.6423   -0.3672 C   0  0  2  0  0  0  0  0  0  0  0  0
   -2.1946   -2.5491    0.7754 N   0  0  0  0  0  0  0  0  0  0  0  0
   -3.4622   -3.2274    0.8100 C   0  0  0  0  0  0  0  0  0  0  0  0
   -3.6390   -4.1351    1.6653 O   0  0  0  0  0  0  0  0  0  0  0  0
   -4.6281   -2.8525   -0.0745 C   0  0  1  0  0  0  0  0  0  0  0  0
   -4.4775   -1.5042   -0.7924 C   0  0  0  0  0  0  0  0  0  0  0  0
   -4.8689   -3.9215   -1.0458 N   0  0  0  0  0  0  0  0  0  0  0  0
   -6.0771   -4.6988   -1.0857 C   0  0  0  0  0  0  0  0  0  0  0  0
   -6.0027   -5.9166   -1.4189 O   0  0  0  0  0  0  0  0  0  0  0  0
   -7.4154   -4.1014   -0.7000 C   0  0  1  0  0  0  0  0  0  0  0  0
   -8.5699   -4.7882   -1.4533 C   0  0  0  0  0  0  0  0  0  0  0  0
   -7.6222   -4.2278    0.7487 N   0  0  0  0  0  0  0  0  0  0  0  0
   -8.4813   -3.3874    1.5379 C   0  0  0  0  0  0  0  0  0  0  0  0
   -8.4748   -3.5298    2.7919 O   0  0  0  0  0  0  0  0  0  0  0  0
   -9.3796   -2.3171    0.9457 C   0  0  1  0  0  0  0  0  0  0  0  0
  -10.8364   -2.5788    1.3221 C   0  0  0  0  0  0  0  0  0  0  0  0
   -8.9731   -0.9971    1.4314 N   0  0  0  0  0  0  0  0  0  0  0  0
   -9.2406    0.2132    0.7082 C   0  0  0  0  0  0  0  0  0  0  0  0
   -9.6460    1.2217    1.3474 O   0  0  0  0  0  0  0  0  0  0  0  0
   -9.0236    0.3155   -0.7871 C   0  0  1  0  0  0  0  0  0  0  0  0
  -10.3517    0.2854   -1.5536 C   0  0  0  0  0  0  0  0  0  0  0  0
   -8.2293    1.5009   -1.1161 N   0  0  0  0  0  0  0  0  0  0  0  0
   -8.6460    2.8526   -0.8389 C   0  0  0  0  0  0  0  0  0  0  0  0
   -9.8393    3.2084   -1.0562 O   0  0  0  0  0  0  0  0  0  0  0  0
   -0.8060   -4.0643   -0.5470 C   0  0  0  0  0  0  0  0  0  0  0  0
   -0.8618   -4.5951   -1.6921 O   0  0  0  0  0  0  0  0  0  0  0  0
   -0.2985   -4.8108    0.5697 N   0  0  0  0  0  0  0  0  0  0  0  0
    0.0736   -6.2282    0.4599 C   0  0  2  0  0  0  0  0  0  0  0  0
    0.1889   -6.8618    1.8503 C   0  0  0  0  0  0  0  0  0  0  0  0
    1.3846   -6.3825   -0.2652 C   0  0  0  0  0  0  0  0  0  0  0  0
    1.4605   -7.2081   -1.2237 O   0  0  0  0  0  0  0  0  0  0  0  0
    2.5478   -5.6600    0.1745 N   0  0  0  0  0  0  0  0  0  0  0  0
    3.9229   -6.1373   -0.0266 C   0  0  2  0  0  0  0  0  0  0  0  0
    4.0492   -7.6130    0.3996 C   0  0  0  0  0  0  0  0  0  0  0  0
    4.8626   -5.3132    0.8260 C   0  0  0  0  0  0  0  0  0  0  0  0
    4.5862   -5.1844    2.0509 O   0  0  0  0  0  0  0  0  0  0  0  0
    6.0635   -4.6993    0.3248 N   0  0  0  0  0  0  0  0  0  0  0  0
    6.5335   -4.7311   -1.0672 C   0  0  2  0  0  0  0  0  0  0  0  0
    7.1419   -6.1111   -1.3859 C   0  0  0  0  0  0  0  0  0  0  0  0
    7.5079   -3.5944   -1.2874 C   0  0  0  0  0  0  0  0  0  0  0  0
    7.0434   -2.4296   -1.4339 O   0  0  0  0  0  0  0  0  0  0  0  0
    8.9365   -3.7879   -1.2581 N   0  0  0  0  0  0  0  0  0  0  0  0
    9.8389   -2.7270   -0.8000 C   0  0  2  0  0  0  0  0  0  0  0  0
   11.2833   -3.0579   -1.1959 C   0  0  0  0  0  0  0  0  0  0  0  0
    9.7225   -2.5898    0.7029 C   0  0  0  0  0  0  0  0  0  0  0  0
   10.0172   -3.5835    1.4216 O   0  0  0  0  0  0  0  0  0  0  0  0
    9.2118   -1.4074    1.3434 N   0  0  0  0  0  0  0  0  0  0  0  0
    9.3084   -0.0427    0.7996 C   0  0  2  0  0  0  0  0  0  0  0  0
   10.7756    0.4041    0.7648 C   0  0  0  0  0  0  0  0  0  0  0  0
    8.5038    0.9214    1.6428 C   0  0  0  0  0  0  0  0  0  0  0  0
    8.5837    0.8680    2.9006 O   0  0  0  0  0  0  0  0  0  0  0  0
    7.6528    1.9045    1.0396 N   0  0  0  0  0  0  0  0  0  0  0  0
    8.1061    2.7476   -0.0708 C   0  0  2  0  0  0  0  0  0  0  0  0
    8.8123    3.9845    0.4829 C   0  0  0  0  0  0  0  0  0  0  0  0
    6.9415    3.1464   -0.9362 C   0  0  0  0  0  0  0  0  0  0  0  0
    6.9628    2.8860   -2.1695 O   0  0  0  0  0  0  0  0  0  0  0  0
    5.8096    3.8165   -0.3707 N   0  0  0  0  0  0  0  0  0  0  0  0
    5.3725    5.1749   -0.7224 C   0  0  2  0  0  0  0  0  0  0  0  0
    6.3808    5.9243   -1.6039 C   0  0  0  0  0  0  0  0  0  0  0  0
    5.1053    5.9626    0.5354 C   0  0  0  0  0  0  0  0  0  0  0  0
    5.5190    5.5475    1.6538 O   0  0  0  0  0  0  0  0  0  0  0  0
    4.3156    7.1547    0.4806 N   0  0  0  0  0  0  0  0  0  0  0  0
    2.9171    7.1182    0.9109 C   0  0  1  0  0  0  0  0  0  0  0  0
    2.6277    8.2657    1.8407 C   0  0  0  0  0  0  0  0  0  0  0  0
    2.8762    9.6172    1.4451 N   0  0  0  0  0  0  0  0  0  0  0  0
    2.1309    8.0360    2.9743 O   0  0  0  0  0  0  0  0  0  0  0  0
    2.0029    7.1350   -0.3183 C   0  0  0  0  0  0  0  0  0  0  0  0
    0.3946    6.3890    0.1182 S   0  0  0  0  0  0  0  0  0  0  0  0
    0.1462    5.4446   -1.4342 C   0  0  0  0  0  0  0  0  0  0  0  0
  -10.6052    6.1249    2.2380 H   0  0  0  0  0  0  0  0  0  0  0  0
   -9.4955    7.1695    1.2460 H   0  0  0  0  0  0  0  0  0  0  0  0
   -9.0532    6.7384    2.9472 H   0  0  0  0  0  0  0  0  0  0  0  0
   -8.6091    5.7704   -0.4746 H   0  0  0  0  0  0  0  0  0  0  0  0
   -7.1392    3.3362    0.5628 H   0  0  0  0  0  0  0  0  0  0  0  0
   -6.0994    3.2984   -1.7608 H   0  0  0  0  0  0  0  0  0  0  0  0
   -7.0980    4.7249   -2.1968 H   0  0  0  0  0  0  0  0  0  0  0  0
   -4.9679    3.1482    0.4539 H   0  0  0  0  0  0  0  0  0  0  0  0
   -4.1075    4.4919    1.2450 H   0  0  0  0  0  0  0  0  0  0  0  0
   -2.4022    5.7372   -0.5659 H   0  0  0  0  0  0  0  0  0  0  0  0
    0.4595    2.7383   -1.7273 H   0  0  0  0  0  0  0  0  0  0  0  0
   -3.4635    1.5705   -0.4183 H   0  0  0  0  0  0  0  0  0  0  0  0
   -1.9894   -0.0336   -1.5877 H   0  0  0  0  0  0  0  0  0  0  0  0
   -0.3175    0.4073   -2.0451 H   0  0  0  0  0  0  0  0  0  0  0  0
    0.5629   -1.6717   -1.0828 H   0  0  0  0  0  0  0  0  0  0  0  0
    0.5876   -2.1277    0.6497 H   0  0  0  0  0  0  0  0  0  0  0  0
   -1.7866   -2.3272   -1.2927 H   0  0  0  0  0  0  0  0  0  0  0  0
   -1.7674   -2.3638    1.7114 H   0  0  0  0  0  0  0  0  0  0  0  0
   -5.5047   -2.7444    0.6004 H   0  0  0  0  0  0  0  0  0  0  0  0
   -4.0503   -0.7437   -0.1037 H   0  0  0  0  0  0  0  0  0  0  0  0
   -5.4777   -1.1482   -1.1194 H   0  0  0  0  0  0  0  0  0  0  0  0
   -3.8446   -1.6015   -1.6989 H   0  0  0  0  0  0  0  0  0  0  0  0
   -4.0616   -4.2466   -1.6271 H   0  0  0  0  0  0  0  0  0  0  0  0
   -7.3884   -3.0300   -0.9918 H   0  0  0  0  0  0  0  0  0  0  0  0
   -8.4283   -4.6765   -2.5489 H   0  0  0  0  0  0  0  0  0  0  0  0
   -8.6158   -5.8682   -1.2007 H   0  0  0  0  0  0  0  0  0  0  0  0
   -9.5445   -4.3392   -1.1836 H   0  0  0  0  0  0  0  0  0  0  0  0
   -7.0969   -4.9734    1.2550 H   0  0  0  0  0  0  0  0  0  0  0  0
   -9.3262   -2.3419   -0.1577 H   0  0  0  0  0  0  0  0  0  0  0  0
  -11.1712   -3.5603    0.9180 H   0  0  0  0  0  0  0  0  0  0  0  0
  -10.9708   -2.5743    2.4270 H   0  0  0  0  0  0  0  0  0  0  0  0
  -11.4913   -1.7899    0.8904 H   0  0  0  0  0  0  0  0  0  0  0  0
   -8.7877   -0.8961    2.4579 H   0  0  0  0  0  0  0  0  0  0  0  0
   -8.4320   -0.5647   -1.1204 H   0  0  0  0  0  0  0  0  0  0  0  0
  -10.1678    0.4847   -2.6312 H   0  0  0  0  0  0  0  0  0  0  0  0
  -11.0643    1.0408   -1.1499 H   0  0  0  0  0  0  0  0  0  0  0  0
  -10.8190   -0.7170   -1.4504 H   0  0  0  0  0  0  0  0  0  0  0  0
   -7.2128    1.3307   -1.3073 H   0  0  0  0  0  0  0  0  0  0  0  0
   -0.3549   -4.3746    1.5175 H   0  0  0  0  0  0  0  0  0  0  0  0
   -0.7208   -6.7691   -0.0914 H   0  0  0  0  0  0  0  0  0  0  0  0
    0.4213   -7.9448    1.7632 H   0  0  0  0  0  0  0  0  0  0  0  0
   -0.7787   -6.7625    2.3892 H   0  0  0  0  0  0  0  0  0  0  0  0
    0.9853   -6.3667    2.4480 H   0  0  0  0  0  0  0  0  0  0  0  0
    2.4003   -4.6511    0.4334 H   0  0  0  0  0  0  0  0  0  0  0  0
    4.1658   -6.0634   -1.1008 H   0  0  0  0  0  0  0  0  0  0  0  0
    3.5617   -7.7923    1.3805 H   0  0  0  0  0  0  0  0  0  0  0  0
    5.1174   -7.9064    0.4698 H   0  0  0  0  0  0  0  0  0  0  0  0
    3.5812   -8.2783   -0.3574 H   0  0  0  0  0  0  0  0  0  0  0  0
    6.6168   -4.1436    1.0171 H   0  0  0  0  0  0  0  0  0  0  0  0
    5.6815   -4.5558   -1.7537 H   0  0  0  0  0  0  0  0  0  0  0  0
    7.9205   -6.3755   -0.6352 H   0  0  0  0  0  0  0  0  0  0  0  0
    6.3617   -6.8941   -1.3736 H   0  0  0  0  0  0  0  0  0  0  0  0
    7.5889   -6.0964   -2.4070 H   0  0  0  0  0  0  0  0  0  0  0  0
    9.3403   -4.7301   -1.4604 H   0  0  0  0  0  0  0  0  0  0  0  0
    9.5740   -1.7883   -1.3250 H   0  0  0  0  0  0  0  0  0  0  0  0
   11.6461   -3.9711   -0.6818 H   0  0  0  0  0  0  0  0  0  0  0  0
   11.3415   -3.2248   -2.2944 H   0  0  0  0  0  0  0  0  0  0  0  0
   11.9584   -2.2185   -0.9456 H   0  0  0  0  0  0  0  0  0  0  0  0
    8.8642   -1.5355    2.3204 H   0  0  0  0  0  0  0  0  0  0  0  0
    8.8907   -0.0296   -0.2271 H   0  0  0  0  0  0  0  0  0  0  0  0
   11.2361    0.3049    1.7729 H   0  0  0  0  0  0  0  0  0  0  0  0
   11.3437   -0.2142    0.0455 H   0  0  0  0  0  0  0  0  0  0  0  0
   10.8517    1.4627    0.4320 H   0  0  0  0  0  0  0  0  0  0  0  0
    6.8808    2.2758    1.6401 H   0  0  0  0  0  0  0  0  0  0  0  0
    8.8311    2.1916   -0.7051 H   0  0  0  0  0  0  0  0  0  0  0  0
    9.6614    3.6777    1.1307 H   0  0  0  0  0  0  0  0  0  0  0  0
    8.1091    4.6041    1.0834 H   0  0  0  0  0  0  0  0  0  0  0  0
    9.2167    4.5939   -0.3529 H   0  0  0  0  0  0  0  0  0  0  0  0
    5.1667    3.2305    0.2184 H   0  0  0  0  0  0  0  0  0  0  0  0
    4.4246    5.0812   -1.2872 H   0  0  0  0  0  0  0  0  0  0  0  0
    7.3624    6.0152   -1.0977 H   0  0  0  0  0  0  0  0  0  0  0  0
    6.5097    5.4005   -2.5761 H   0  0  0  0  0  0  0  0  0  0  0  0
    6.0032    6.9424   -1.8335 H   0  0  0  0  0  0  0  0  0  0  0  0
    4.6428    7.9364   -0.1377 H   0  0  0  0  0  0  0  0  0  0  0  0
    2.7431    6.1662    1.4671 H   0  0  0  0  0  0  0  0  0  0  0  0
    2.6649   10.3994    2.1072 H   0  0  0  0  0  0  0  0  0  0  0  0
    3.3401    9.8332    0.5379 H   0  0  0  0  0  0  0  0  0  0  0  0
    1.8330    8.1677   -0.6885 H   0  0  0  0  0  0  0  0  0  0  0  0
    2.4913    6.5797   -1.1437 H   0  0  0  0  0  0  0  0  0  0  0  0
    1.1001    4.9972   -1.7793 H   0  0  0  0  0  0  0  0  0  0  0  0
   -0.2222    6.1414   -2.2199 H   0  0  0  0  0  0  0  0  0  0  0  0
  1  2  1  0
  2  3  2  0
  2  4  1  0
  4  5  1  0
  5  6  1  0
  6  7  1  0
  7  8  1  0
  8  9  1  0
  9 10  2  0
 10 11  1  0
 11 12  2  0
 12 13  1  0
 13 14  2  0
 13 15  1  0
 15 16  1  0
 16 17  1  0
 17 18  1  0
 18 19  1  0
 19 20  1  0
 20 21  2  0
 20 22  1  0
 22 23  1  0
 22 24  1  0
 24 25  1  0
 25 26  2  0
 25 27  1  0
 27 28  1  0
 27 29  1  0
 29 30  1  0
 30 31  2  0
 30 32  1  0
 32 33  1  0
 32 34  1  0
 34 35  1  0
 35 36  2  0
 35 37  1  0
 37 38  1  0
 37 39  1  0
 39 40  1  0
 40 41  2  0
 18 42  1  0
 42 43  2  0
 42 44  1  0
 44 45  1  0
 45 46  1  0
 45 47  1  0
 47 48  2  0
 47 49  1  0
 49 50  1  0
 50 51  1  0
 50 52  1  0
 52 53  2  0
 52 54  1  0
 54 55  1  0
 55 56  1  0
 55 57  1  0
 57 58  2  0
 57 59  1  0
 59 60  1  0
 60 61  1  0
 60 62  1  0
 62 63  2  0
 62 64  1  0
 64 65  1  0
 65 66  1  0
 65 67  1  0
 67 68  2  0
 67 69  1  0
 69 70  1  0
 70 71  1  0
 70 72  1  0
 72 73  2  0
 72 74  1  0
 74 75  1  0
 75 76  1  0
 75 77  1  0
 77 78  2  0
 77 79  1  0
 79 80  1  0
 80 81  1  0
 81 82  1  0
 81 83  2  0
 80 84  1  0
 84 85  1  0
 85 86  1  0
 40  5  1  0
 14  9  1  0
 86 11  1  0
  1 87  1  0
  1 88  1  0
  1 89  1  0
  4 90  1  0
  5 91  1  1
  6 92  1  0
  6 93  1  0
  8 94  1  0
  8 95  1  0
 10 96  1  0
 12 97  1  0
 14 98  1  0
 15 99  1  0
 15100  1  0
 17101  1  0
 17102  1  0
 18103  1  6
 19104  1  0
 22105  1  1
 23106  1  0
 23107  1  0
 23108  1  0
 24109  1  0
 27110  1  1
 28111  1  0
 28112  1  0
 28113  1  0
 29114  1  0
 32115  1  6
 33116  1  0
 33117  1  0
 33118  1  0
 34119  1  0
 37120  1  6
 38121  1  0
 38122  1  0
 38123  1  0
 39124  1  0
 44125  1  0
 45126  1  6
 46127  1  0
 46128  1  0
 46129  1  0
 49130  1  0
 50131  1  6
 51132  1  0
 51133  1  0
 51134  1  0
 54135  1  0
 55136  1  6
 56137  1  0
 56138  1  0
 56139  1  0
 59140  1  0
 60141  1  6
 61142  1  0
 61143  1  0
 61144  1  0
 64145  1  0
 65146  1  6
 66147  1  0
 66148  1  0
 66149  1  0
 69150  1  0
 70151  1  6
 71152  1  0
 71153  1  0
 71154  1  0
 74155  1  0
 75156  1  6
 76157  1  0
 76158  1  0
 76159  1  0
 79160  1  0
 80161  1  1
 82162  1  0
 82163  1  0
 84164  1  0
 84165  1  0
 86166  1  0
 86167  1  0
M  END
