
     RDKit          3D

137139  0  0  0  0  0  0  0  0999 V2000
    5.1337    7.6346    0.5690 C   0  0  0  0  0  0  0  0  0  0  0  0
    5.0044    6.4370    1.4586 C   0  0  0  0  0  0  0  0  0  0  0  0
    5.2015    6.5743    2.6940 O   0  0  0  0  0  0  0  0  0  0  0  0
    4.6548    5.1409    0.9444 N   0  0  0  0  0  0  0  0  0  0  0  0
    4.5949    4.7957   -0.4825 C   0  0  2  0  0  0  0  0  0  0  0  0
    3.2070    4.2356   -0.8300 C   0  0  0  0  0  0  0  0  0  0  0  0
    1.9100    5.4924   -0.5246 S   0  0  0  0  0  0  0  0  0  0  0  0
    1.2347    4.7492    1.0050 C   0  0  0  0  0  0  0  0  0  0  0  0
    0.2427    3.6687    0.6696 C   0  0  0  0  0  0  0  0  0  0  0  0
    0.5196    2.3194    0.9595 C   0  0  0  0  0  0  0  0  0  0  0  0
   -0.4181    1.3188    0.6489 C   0  0  0  0  0  0  0  0  0  0  0  0
   -1.6319    1.6782    0.0431 C   0  0  0  0  0  0  0  0  0  0  0  0
   -1.9239    3.0207   -0.2391 C   0  0  0  0  0  0  0  0  0  0  0  0
   -0.9799    4.0109    0.0689 C   0  0  0  0  0  0  0  0  0  0  0  0
   -3.2736    3.3950   -0.7747 C   0  0  0  0  0  0  0  0  0  0  0  0
   -4.3602    3.8125    0.6276 S   0  0  0  0  0  0  0  0  0  0  0  0
   -5.8398    4.1750   -0.3812 C   0  0  0  0  0  0  0  0  0  0  0  0
   -7.1056    4.1842    0.5033 C   0  0  1  0  0  0  0  0  0  0  0  0
   -8.1587    5.0574   -0.1230 C   0  0  0  0  0  0  0  0  0  0  0  0
   -8.7390    4.7095   -1.3807 N   0  0  0  0  0  0  0  0  0  0  0  0
   -8.5115    6.1207    0.4490 O   0  0  0  0  0  0  0  0  0  0  0  0
   -7.6874    2.8574    0.7789 N   0  0  0  0  0  0  0  0  0  0  0  0
   -7.2748    1.5963    0.2181 C   0  0  0  0  0  0  0  0  0  0  0  0
   -6.0487    1.3291    0.1046 O   0  0  0  0  0  0  0  0  0  0  0  0
   -8.2863    0.5158   -0.1056 C   0  0  1  0  0  0  0  0  0  0  0  0
   -9.6384    1.0913   -0.5364 C   0  0  0  0  0  0  0  0  0  0  0  0
   -7.7715   -0.3247   -1.1931 N   0  0  0  0  0  0  0  0  0  0  0  0
   -7.8569   -1.7602   -1.2417 C   0  0  0  0  0  0  0  0  0  0  0  0
   -7.8437   -2.3231   -2.3701 O   0  0  0  0  0  0  0  0  0  0  0  0
   -7.9809   -2.6140   -0.0015 C   0  0  1  0  0  0  0  0  0  0  0  0
   -9.4477   -2.9436    0.2772 C   0  0  0  0  0  0  0  0  0  0  0  0
   -7.2297   -3.8578   -0.1778 N   0  0  0  0  0  0  0  0  0  0  0  0
   -6.1432   -4.2006    0.6881 C   0  0  0  0  0  0  0  0  0  0  0  0
   -6.3740   -4.4423    1.9038 O   0  0  0  0  0  0  0  0  0  0  0  0
   -4.7166   -4.1879    0.1940 C   0  0  1  0  0  0  0  0  0  0  0  0
   -4.6335   -4.2542   -1.3399 C   0  0  0  0  0  0  0  0  0  0  0  0
   -4.0247   -2.9964    0.7097 N   0  0  0  0  0  0  0  0  0  0  0  0
   -2.7198   -2.6115    0.2611 C   0  0  0  0  0  0  0  0  0  0  0  0
   -2.6230   -1.7264   -0.6329 O   0  0  0  0  0  0  0  0  0  0  0  0
   -1.4633   -3.1766    0.8868 C   0  0  1  0  0  0  0  0  0  0  0  0
   -1.0531   -2.4552    2.1916 C   0  0  0  0  0  0  0  0  0  0  0  0
   -1.4012   -0.6545    2.2377 S   0  0  0  0  0  0  0  0  0  0  0  0
   -0.1623   -0.1247    1.0020 C   0  0  0  0  0  0  0  0  0  0  0  0
   -1.6391   -4.6049    1.1602 N   0  0  0  0  0  0  0  0  0  0  0  0
   -1.1351   -5.6081    0.2785 C   0  0  0  0  0  0  0  0  0  0  0  0
   -1.9456   -6.3505   -0.3379 O   0  0  0  0  0  0  0  0  0  0  0  0
    0.3495   -5.7829    0.1031 C   0  0  1  0  0  0  0  0  0  0  0  0
    0.7145   -7.2718    0.0360 C   0  0  0  0  0  0  0  0  0  0  0  0
    0.7972   -5.1051   -1.1141 N   0  0  0  0  0  0  0  0  0  0  0  0
    2.0624   -4.4334   -1.2651 C   0  0  0  0  0  0  0  0  0  0  0  0
    2.4414   -4.1420   -2.4321 O   0  0  0  0  0  0  0  0  0  0  0  0
    2.9304   -4.0377   -0.0809 C   0  0  1  0  0  0  0  0  0  0  0  0
    3.6690   -5.2368    0.5382 C   0  0  0  0  0  0  0  0  0  0  0  0
    3.8944   -2.9894   -0.4463 N   0  0  0  0  0  0  0  0  0  0  0  0
    5.1263   -3.2601   -1.1317 C   0  0  0  0  0  0  0  0  0  0  0  0
    5.1651   -4.1344   -2.0389 O   0  0  0  0  0  0  0  0  0  0  0  0
    6.4001   -2.5881   -0.6894 C   0  0  1  0  0  0  0  0  0  0  0  0
    7.2131   -3.5731    0.1556 C   0  0  0  0  0  0  0  0  0  0  0  0
    7.1894   -2.1640   -1.8475 N   0  0  0  0  0  0  0  0  0  0  0  0
    7.4696   -0.7918   -2.1695 C   0  0  0  0  0  0  0  0  0  0  0  0
    7.3682   -0.4337   -3.3745 O   0  0  0  0  0  0  0  0  0  0  0  0
    7.8424    0.2494   -1.1244 C   0  0  1  0  0  0  0  0  0  0  0  0
    8.6977   -0.3339    0.0107 C   0  0  0  0  0  0  0  0  0  0  0  0
    8.5905    1.3537   -1.7489 N   0  0  0  0  0  0  0  0  0  0  0  0
    8.8252    2.6314   -1.1384 C   0  0  0  0  0  0  0  0  0  0  0  0
    9.7417    3.3672   -1.6084 O   0  0  0  0  0  0  0  0  0  0  0  0
    8.0021    3.1504    0.0206 C   0  0  1  0  0  0  0  0  0  0  0  0
    8.9014    3.7649    1.1026 C   0  0  0  0  0  0  0  0  0  0  0  0
    7.0512    4.1575   -0.4655 N   0  0  0  0  0  0  0  0  0  0  0  0
    5.6989    3.8127   -0.7807 C   0  0  0  0  0  0  0  0  0  0  0  0
    5.4426    2.6948   -1.3084 O   0  0  0  0  0  0  0  0  0  0  0  0
    4.1786    7.8051    0.0294 H   0  0  0  0  0  0  0  0  0  0  0  0
    5.9543    7.4805   -0.1626 H   0  0  0  0  0  0  0  0  0  0  0  0
    5.3624    8.5406    1.1707 H   0  0  0  0  0  0  0  0  0  0  0  0
    4.5317    4.3651    1.6346 H   0  0  0  0  0  0  0  0  0  0  0  0
    4.7679    5.6900   -1.1146 H   0  0  0  0  0  0  0  0  0  0  0  0
    3.0102    3.3027   -0.2646 H   0  0  0  0  0  0  0  0  0  0  0  0
    3.1772    3.9859   -1.9107 H   0  0  0  0  0  0  0  0  0  0  0  0
    2.0573    4.3638    1.6439 H   0  0  0  0  0  0  0  0  0  0  0  0
    0.7170    5.5427    1.5891 H   0  0  0  0  0  0  0  0  0  0  0  0
    1.4640    2.0486    1.4183 H   0  0  0  0  0  0  0  0  0  0  0  0
   -2.3668    0.9130   -0.1694 H   0  0  0  0  0  0  0  0  0  0  0  0
   -1.1983    5.0457   -0.1611 H   0  0  0  0  0  0  0  0  0  0  0  0
   -3.1874    4.2508   -1.4771 H   0  0  0  0  0  0  0  0  0  0  0  0
   -3.7078    2.5312   -1.3254 H   0  0  0  0  0  0  0  0  0  0  0  0
   -5.6794    5.1833   -0.8198 H   0  0  0  0  0  0  0  0  0  0  0  0
   -5.9518    3.4651   -1.2303 H   0  0  0  0  0  0  0  0  0  0  0  0
   -6.8338    4.6369    1.4834 H   0  0  0  0  0  0  0  0  0  0  0  0
   -8.4127    3.8689   -1.9084 H   0  0  0  0  0  0  0  0  0  0  0  0
   -9.4862    5.3090   -1.7998 H   0  0  0  0  0  0  0  0  0  0  0  0
   -8.5414    2.8488    1.3817 H   0  0  0  0  0  0  0  0  0  0  0  0
   -8.4579   -0.0751    0.8182 H   0  0  0  0  0  0  0  0  0  0  0  0
  -10.3104    0.2694   -0.8607 H   0  0  0  0  0  0  0  0  0  0  0  0
  -10.1354    1.6162    0.3033 H   0  0  0  0  0  0  0  0  0  0  0  0
   -9.5101    1.7894   -1.3891 H   0  0  0  0  0  0  0  0  0  0  0  0
   -7.4992    0.1607   -2.0772 H   0  0  0  0  0  0  0  0  0  0  0  0
   -7.5632   -2.0682    0.8733 H   0  0  0  0  0  0  0  0  0  0  0  0
   -9.8942   -3.4999   -0.5746 H   0  0  0  0  0  0  0  0  0  0  0  0
  -10.0288   -2.0078    0.4378 H   0  0  0  0  0  0  0  0  0  0  0  0
   -9.5292   -3.5568    1.1982 H   0  0  0  0  0  0  0  0  0  0  0  0
   -7.4454   -4.4843   -0.9867 H   0  0  0  0  0  0  0  0  0  0  0  0
   -4.2262   -5.0975    0.5963 H   0  0  0  0  0  0  0  0  0  0  0  0
   -3.5765   -4.3581   -1.6626 H   0  0  0  0  0  0  0  0  0  0  0  0
   -5.0561   -3.3302   -1.7958 H   0  0  0  0  0  0  0  0  0  0  0  0
   -5.1894   -5.1409   -1.7210 H   0  0  0  0  0  0  0  0  0  0  0  0
   -4.5772   -2.2697    1.2213 H   0  0  0  0  0  0  0  0  0  0  0  0
   -0.6385   -3.0458    0.1541 H   0  0  0  0  0  0  0  0  0  0  0  0
    0.0271   -2.6204    2.3842 H   0  0  0  0  0  0  0  0  0  0  0  0
   -1.6085   -2.8982    3.0443 H   0  0  0  0  0  0  0  0  0  0  0  0
    0.8610   -0.2691    1.4092 H   0  0  0  0  0  0  0  0  0  0  0  0
   -0.2546   -0.7249    0.0758 H   0  0  0  0  0  0  0  0  0  0  0  0
   -2.3389   -4.8954    1.8793 H   0  0  0  0  0  0  0  0  0  0  0  0
    0.8355   -5.3451    0.9976 H   0  0  0  0  0  0  0  0  0  0  0  0
    0.5011   -7.7605    1.0114 H   0  0  0  0  0  0  0  0  0  0  0  0
    0.1346   -7.7906   -0.7605 H   0  0  0  0  0  0  0  0  0  0  0  0
    1.7908   -7.4055   -0.1919 H   0  0  0  0  0  0  0  0  0  0  0  0
    0.2351   -5.2674   -1.9821 H   0  0  0  0  0  0  0  0  0  0  0  0
    2.2611   -3.6081    0.6980 H   0  0  0  0  0  0  0  0  0  0  0  0
    4.4412   -4.8755    1.2501 H   0  0  0  0  0  0  0  0  0  0  0  0
    2.9880   -5.8860    1.1211 H   0  0  0  0  0  0  0  0  0  0  0  0
    4.1630   -5.8507   -0.2468 H   0  0  0  0  0  0  0  0  0  0  0  0
    3.7484   -2.0287   -0.0545 H   0  0  0  0  0  0  0  0  0  0  0  0
    6.1309   -1.7114   -0.0624 H   0  0  0  0  0  0  0  0  0  0  0  0
    8.1830   -3.1286    0.4625 H   0  0  0  0  0  0  0  0  0  0  0  0
    7.4319   -4.4991   -0.4218 H   0  0  0  0  0  0  0  0  0  0  0  0
    6.6509   -3.8436    1.0753 H   0  0  0  0  0  0  0  0  0  0  0  0
    7.4226   -2.8785   -2.5746 H   0  0  0  0  0  0  0  0  0  0  0  0
    6.8850    0.6286   -0.7107 H   0  0  0  0  0  0  0  0  0  0  0  0
    8.0645   -0.8462    0.7602 H   0  0  0  0  0  0  0  0  0  0  0  0
    9.4622   -1.0357   -0.3869 H   0  0  0  0  0  0  0  0  0  0  0  0
    9.2258    0.4728    0.5602 H   0  0  0  0  0  0  0  0  0  0  0  0
    9.1873    1.1294   -2.5808 H   0  0  0  0  0  0  0  0  0  0  0  0
    7.4484    2.3332    0.5171 H   0  0  0  0  0  0  0  0  0  0  0  0
    9.4861    4.6155    0.6965 H   0  0  0  0  0  0  0  0  0  0  0  0
    8.2737    4.1374    1.9406 H   0  0  0  0  0  0  0  0  0  0  0  0
    9.5996    2.9963    1.4998 H   0  0  0  0  0  0  0  0  0  0  0  0
    7.3006    5.1703   -0.3953 H   0  0  0  0  0  0  0  0  0  0  0  0
  1  2  1  0
  2  3  2  0
  2  4  1  0
  4  5  1  0
  5  6  1  0
  6  7  1  0
  7  8  1  0
  8  9  1  0
  9 10  1  0
 10 11  2  0
 11 12  1  0
 12 13  2  0
 13 14  1  0
 13 15  1  0
 15 16  1  0
 16 17  1  0
 17 18  1  0
 18 19  1  0
 19 20  1  0
 19 21  2  0
 18 22  1  0
 22 23  1  0
 23 24  2  0
 23 25  1  0
 25 26  1  0
 25 27  1  0
 27 28  1  0
 28 29  2  0
 28 30  1  0
 30 31  1  0
 30 32  1  0
 32 33  1  0
 33 34  2  0
 33 35  1  0
 35 36  1  0
 35 37  1  0
 37 38  1  0
 38 39  2  0
 38 40  1  0
 40 41  1  0
 41 42  1  0
 42 43  1  0
 40 44  1  0
 44 45  1  0
 45 46  2  0
 45 47  1  0
 47 48  1  0
 47 49  1  0
 49 50  1  0
 50 51  2  0
 50 52  1  0
 52 53  1  0
 52 54  1  0
 54 55  1  0
 55 56  2  0
 55 57  1  0
 57 58  1  0
 57 59  1  0
 59 60  1  0
 60 61  2  0
 60 62  1  0
 62 63  1  0
 62 64  1  0
 64 65  1  0
 65 66  2  0
 65 67  1  0
 67 68  1  0
 67 69  1  0
 69 70  1  0
 70 71  2  0
 70  5  1  0
 14  9  2  0
 43 11  1  0
  1 72  1  0
  1 73  1  0
  1 74  1  0
  4 75  1  0
  5 76  1  6
  6 77  1  0
  6 78  1  0
  8 79  1  0
  8 80  1  0
 10 81  1  0
 12 82  1  0
 14 83  1  0
 15 84  1  0
 15 85  1  0
 17 86  1  0
 17 87  1  0
 18 88  1  1
 20 89  1  0
 20 90  1  0
 22 91  1  0
 25 92  1  1
 26 93  1  0
 26 94  1  0
 26 95  1  0
 27 96  1  0
 30 97  1  1
 31 98  1  0
 31 99  1  0
 31100  1  0
 32101  1  0
 35102  1  1
 36103  1  0
 36104  1  0
 36105  1  0
 37106  1  0
 40107  1  6
 41108  1  0
 41109  1  0
 43110  1  0
 43111  1  0
 44112  1  0
 47113  1  1
 48114  1  0
 48115  1  0
 48116  1  0
 49117  1  0
 52118  1  1
 53119  1  0
 53120  1  0
 53121  1  0
 54122  1  0
 57123  1  1
 58124  1  0
 58125  1  0
 58126  1  0
 59127  1  0
 62128  1  1
 63129  1  0
 63130  1  0
 63131  1  0
 64132  1  0
 67133  1  1
 68134  1  0
 68135  1  0
 68136  1  0
 69137  1  0
M  END
