
     RDKit          3D

137139  0  0  0  0  0  0  0  0999 V2000
   -4.2473    8.6767    0.5331 C   0  0  0  0  0  0  0  0  0  0  0  0
   -4.6786    7.2458    0.5396 C   0  0  0  0  0  0  0  0  0  0  0  0
   -5.7157    6.9207    1.1795 O   0  0  0  0  0  0  0  0  0  0  0  0
   -3.9319    6.2521   -0.1748 N   0  0  0  0  0  0  0  0  0  0  0  0
   -4.3411    4.8450   -0.1980 C   0  0  2  0  0  0  0  0  0  0  0  0
   -3.1597    3.9378   -0.5760 C   0  0  0  0  0  0  0  0  0  0  0  0
   -1.8278    4.0592    0.6678 S   0  0  0  0  0  0  0  0  0  0  0  0
   -0.7050    2.9170   -0.2098 C   0  0  0  0  0  0  0  0  0  0  0  0
    0.4995    2.6200    0.6368 C   0  0  0  0  0  0  0  0  0  0  0  0
    1.5084    3.5830    0.7933 C   0  0  0  0  0  0  0  0  0  0  0  0
    2.6968    3.2675    1.4806 C   0  0  0  0  0  0  0  0  0  0  0  0
    2.8202    2.0050    2.0861 C   0  0  0  0  0  0  0  0  0  0  0  0
    1.7834    1.0628    1.9968 C   0  0  0  0  0  0  0  0  0  0  0  0
    0.6365    1.3684    1.2514 C   0  0  0  0  0  0  0  0  0  0  0  0
    1.9076   -0.2655    2.6871 C   0  0  0  0  0  0  0  0  0  0  0  0
    2.8174   -1.4490    1.6370 S   0  0  0  0  0  0  0  0  0  0  0  0
    1.3616   -2.1094    0.7453 C   0  0  0  0  0  0  0  0  0  0  0  0
    1.7751   -3.1575   -0.3023 C   0  0  1  0  0  0  0  0  0  0  0  0
    0.5683   -3.6618   -0.9614 N   0  0  0  0  0  0  0  0  0  0  0  0
    0.3444   -5.0553   -1.1823 C   0  0  0  0  0  0  0  0  0  0  0  0
    0.7168   -5.5787   -2.2645 O   0  0  0  0  0  0  0  0  0  0  0  0
   -0.4130   -5.8825   -0.1750 C   0  0  1  0  0  0  0  0  0  0  0  0
    0.4526   -6.1457    1.0603 C   0  0  0  0  0  0  0  0  0  0  0  0
   -1.6640   -5.2166    0.2108 N   0  0  0  0  0  0  0  0  0  0  0  0
   -2.5697   -4.6443   -0.7490 C   0  0  0  0  0  0  0  0  0  0  0  0
   -2.4578   -4.9359   -1.9686 O   0  0  0  0  0  0  0  0  0  0  0  0
   -3.6416   -3.6795   -0.2982 C   0  0  1  0  0  0  0  0  0  0  0  0
   -3.0572   -2.5996    0.6172 C   0  0  0  0  0  0  0  0  0  0  0  0
   -4.2604   -3.0338   -1.4621 N   0  0  0  0  0  0  0  0  0  0  0  0
   -5.5950   -3.2620   -1.9450 C   0  0  0  0  0  0  0  0  0  0  0  0
   -5.8214   -3.1089   -3.1760 O   0  0  0  0  0  0  0  0  0  0  0  0
   -6.7544   -3.6559   -1.0563 C   0  0  1  0  0  0  0  0  0  0  0  0
   -6.9071   -5.1807   -1.0418 C   0  0  0  0  0  0  0  0  0  0  0  0
   -6.6157   -3.1295    0.3078 N   0  0  0  0  0  0  0  0  0  0  0  0
   -6.7038   -1.7394    0.6639 C   0  0  0  0  0  0  0  0  0  0  0  0
   -6.6199   -1.4232    1.8807 O   0  0  0  0  0  0  0  0  0  0  0  0
   -6.9716   -0.6487   -0.3505 C   0  0  1  0  0  0  0  0  0  0  0  0
   -8.4582   -0.2818   -0.3092 C   0  0  0  0  0  0  0  0  0  0  0  0
   -6.1251    0.5142   -0.0650 N   0  0  0  0  0  0  0  0  0  0  0  0
   -6.2869    1.7468   -0.7708 C   0  0  0  0  0  0  0  0  0  0  0  0
   -5.8997    1.8296   -1.9665 O   0  0  0  0  0  0  0  0  0  0  0  0
   -7.0151    2.8989   -0.1195 C   0  0  1  0  0  0  0  0  0  0  0  0
   -6.7339    2.9896    1.3853 C   0  0  0  0  0  0  0  0  0  0  0  0
   -6.7595    4.1755   -0.8064 N   0  0  0  0  0  0  0  0  0  0  0  0
   -5.4659    4.6797   -1.1845 C   0  0  0  0  0  0  0  0  0  0  0  0
   -5.2931    5.0695   -2.3708 O   0  0  0  0  0  0  0  0  0  0  0  0
    2.6861   -2.5458   -1.3426 C   0  0  0  0  0  0  0  0  0  0  0  0
    2.2423   -1.5851   -2.0269 O   0  0  0  0  0  0  0  0  0  0  0  0
    4.0431   -2.9731   -1.5792 N   0  0  0  0  0  0  0  0  0  0  0  0
    4.7097   -4.2060   -1.1253 C   0  0  2  0  0  0  0  0  0  0  0  0
    4.0321   -5.4414   -1.7268 C   0  0  0  0  0  0  0  0  0  0  0  0
    4.8456   -4.2703    0.3840 C   0  0  0  0  0  0  0  0  0  0  0  0
    4.4369   -5.2889    1.0036 O   0  0  0  0  0  0  0  0  0  0  0  0
    5.4427   -3.2038    1.1344 N   0  0  0  0  0  0  0  0  0  0  0  0
    6.4327   -2.2730    0.5847 C   0  0  2  0  0  0  0  0  0  0  0  0
    7.8352   -2.8371    0.7966 C   0  0  0  0  0  0  0  0  0  0  0  0
    6.3001   -0.9239    1.2487 C   0  0  0  0  0  0  0  0  0  0  0  0
    6.2802   -0.8571    2.5059 O   0  0  0  0  0  0  0  0  0  0  0  0
    6.1501    0.2842    0.4891 N   0  0  0  0  0  0  0  0  0  0  0  0
    6.9173    0.5685   -0.7273 C   0  0  2  0  0  0  0  0  0  0  0  0
    8.2266    1.2850   -0.3742 C   0  0  0  0  0  0  0  0  0  0  0  0
    6.0617    1.3389   -1.7056 C   0  0  0  0  0  0  0  0  0  0  0  0
    5.2283    0.7027   -2.4080 O   0  0  0  0  0  0  0  0  0  0  0  0
    6.1981    2.7512   -1.9035 N   0  0  0  0  0  0  0  0  0  0  0  0
    5.9252    3.7194   -0.8414 C   0  0  1  0  0  0  0  0  0  0  0  0
    6.9251    4.8423   -0.9225 C   0  0  0  0  0  0  0  0  0  0  0  0
    7.7595    5.1550    0.1922 N   0  0  0  0  0  0  0  0  0  0  0  0
    7.0322    5.5168   -1.9833 O   0  0  0  0  0  0  0  0  0  0  0  0
    4.4857    4.2371   -0.9889 C   0  0  0  0  0  0  0  0  0  0  0  0
    4.0335    5.4586    0.3017 S   0  0  0  0  0  0  0  0  0  0  0  0
    3.7813    4.2989    1.7029 C   0  0  0  0  0  0  0  0  0  0  0  0
   -5.0586    9.3046    0.1084 H   0  0  0  0  0  0  0  0  0  0  0  0
   -3.3315    8.8124   -0.0777 H   0  0  0  0  0  0  0  0  0  0  0  0
   -4.0400    9.0011    1.5744 H   0  0  0  0  0  0  0  0  0  0  0  0
   -3.0773    6.5465   -0.7006 H   0  0  0  0  0  0  0  0  0  0  0  0
   -4.6700    4.5663    0.8192 H   0  0  0  0  0  0  0  0  0  0  0  0
   -3.5095    2.8820   -0.6223 H   0  0  0  0  0  0  0  0  0  0  0  0
   -2.7619    4.2214   -1.5751 H   0  0  0  0  0  0  0  0  0  0  0  0
   -0.3791    3.3773   -1.1684 H   0  0  0  0  0  0  0  0  0  0  0  0
   -1.2525    1.9760   -0.4402 H   0  0  0  0  0  0  0  0  0  0  0  0
    1.3701    4.5746    0.3696 H   0  0  0  0  0  0  0  0  0  0  0  0
    3.7102    1.7634    2.6531 H   0  0  0  0  0  0  0  0  0  0  0  0
   -0.1635    0.6427    1.1761 H   0  0  0  0  0  0  0  0  0  0  0  0
    2.4784   -0.1389    3.6290 H   0  0  0  0  0  0  0  0  0  0  0  0
    0.9120   -0.6661    2.9714 H   0  0  0  0  0  0  0  0  0  0  0  0
    0.6710   -2.5788    1.4792 H   0  0  0  0  0  0  0  0  0  0  0  0
    0.8260   -1.2805    0.2421 H   0  0  0  0  0  0  0  0  0  0  0  0
    2.2748   -3.9891    0.2260 H   0  0  0  0  0  0  0  0  0  0  0  0
   -0.0660   -2.9848   -1.4476 H   0  0  0  0  0  0  0  0  0  0  0  0
   -0.6639   -6.8656   -0.6357 H   0  0  0  0  0  0  0  0  0  0  0  0
    1.4525   -6.5409    0.7609 H   0  0  0  0  0  0  0  0  0  0  0  0
   -0.0436   -6.8953    1.7133 H   0  0  0  0  0  0  0  0  0  0  0  0
    0.5938   -5.2033    1.6380 H   0  0  0  0  0  0  0  0  0  0  0  0
   -1.9758   -5.2634    1.2149 H   0  0  0  0  0  0  0  0  0  0  0  0
   -4.3794   -4.2668    0.2751 H   0  0  0  0  0  0  0  0  0  0  0  0
   -3.8295   -1.8334    0.8409 H   0  0  0  0  0  0  0  0  0  0  0  0
   -2.1942   -2.0971    0.1279 H   0  0  0  0  0  0  0  0  0  0  0  0
   -2.7209   -3.0346    1.5801 H   0  0  0  0  0  0  0  0  0  0  0  0
   -3.6303   -2.4684   -2.0791 H   0  0  0  0  0  0  0  0  0  0  0  0
   -7.6919   -3.2425   -1.4940 H   0  0  0  0  0  0  0  0  0  0  0  0
   -6.0000   -5.6692   -0.6328 H   0  0  0  0  0  0  0  0  0  0  0  0
   -7.7820   -5.4666   -0.4171 H   0  0  0  0  0  0  0  0  0  0  0  0
   -7.0795   -5.5590   -2.0754 H   0  0  0  0  0  0  0  0  0  0  0  0
   -6.5199   -3.8080    1.0998 H   0  0  0  0  0  0  0  0  0  0  0  0
   -6.7325   -0.9954   -1.3738 H   0  0  0  0  0  0  0  0  0  0  0  0
   -8.7171    0.1822    0.6663 H   0  0  0  0  0  0  0  0  0  0  0  0
   -9.0848   -1.1886   -0.4552 H   0  0  0  0  0  0  0  0  0  0  0  0
   -8.7025    0.4290   -1.1242 H   0  0  0  0  0  0  0  0  0  0  0  0
   -5.1726    0.3439    0.3333 H   0  0  0  0  0  0  0  0  0  0  0  0
   -8.1048    2.6843   -0.2162 H   0  0  0  0  0  0  0  0  0  0  0  0
   -7.3376    2.2270    1.9261 H   0  0  0  0  0  0  0  0  0  0  0  0
   -5.6662    2.7826    1.6104 H   0  0  0  0  0  0  0  0  0  0  0  0
   -7.0131    3.9908    1.7712 H   0  0  0  0  0  0  0  0  0  0  0  0
   -7.5736    4.5945   -1.3083 H   0  0  0  0  0  0  0  0  0  0  0  0
    4.5993   -2.3727   -2.2281 H   0  0  0  0  0  0  0  0  0  0  0  0
    5.7435   -4.2053   -1.5337 H   0  0  0  0  0  0  0  0  0  0  0  0
    3.8760   -5.3041   -2.8220 H   0  0  0  0  0  0  0  0  0  0  0  0
    4.6713   -6.3371   -1.5714 H   0  0  0  0  0  0  0  0  0  0  0  0
    3.0556   -5.6358   -1.2454 H   0  0  0  0  0  0  0  0  0  0  0  0
    5.3408   -3.2518    2.1730 H   0  0  0  0  0  0  0  0  0  0  0  0
    6.2698   -2.1613   -0.4995 H   0  0  0  0  0  0  0  0  0  0  0  0
    8.5971   -2.1394    0.3842 H   0  0  0  0  0  0  0  0  0  0  0  0
    7.9326   -3.8092    0.2646 H   0  0  0  0  0  0  0  0  0  0  0  0
    8.0361   -2.9992    1.8755 H   0  0  0  0  0  0  0  0  0  0  0  0
    5.7118    1.0954    0.9814 H   0  0  0  0  0  0  0  0  0  0  0  0
    7.2154   -0.3690   -1.2391 H   0  0  0  0  0  0  0  0  0  0  0  0
    8.8852    0.5906    0.1888 H   0  0  0  0  0  0  0  0  0  0  0  0
    8.7577    1.6017   -1.2950 H   0  0  0  0  0  0  0  0  0  0  0  0
    8.0450    2.1695    0.2664 H   0  0  0  0  0  0  0  0  0  0  0  0
    6.1332    3.0912   -2.8912 H   0  0  0  0  0  0  0  0  0  0  0  0
    6.0169    3.2239    0.1431 H   0  0  0  0  0  0  0  0  0  0  0  0
    7.6691    4.6342    1.0922 H   0  0  0  0  0  0  0  0  0  0  0  0
    8.4754    5.9108    0.1179 H   0  0  0  0  0  0  0  0  0  0  0  0
    4.3759    4.7372   -1.9766 H   0  0  0  0  0  0  0  0  0  0  0  0
    3.7773    3.3818   -0.9788 H   0  0  0  0  0  0  0  0  0  0  0  0
    3.5009    4.9012    2.5920 H   0  0  0  0  0  0  0  0  0  0  0  0
    4.7483    3.8084    1.9391 H   0  0  0  0  0  0  0  0  0  0  0  0
  1  2  1  0
  2  3  2  0
  2  4  1  0
  4  5  1  0
  5  6  1  0
  6  7  1  0
  7  8  1  0
  8  9  1  0
  9 10  1  0
 10 11  2  0
 11 12  1  0
 12 13  2  0
 13 14  1  0
 13 15  1  0
 15 16  1  0
 16 17  1  0
 17 18  1  0
 18 19  1  0
 19 20  1  0
 20 21  2  0
 20 22  1  0
 22 23  1  0
 22 24  1  0
 24 25  1  0
 25 26  2  0
 25 27  1  0
 27 28  1  0
 27 29  1  0
 29 30  1  0
 30 31  2  0
 30 32  1  0
 32 33  1  0
 32 34  1  0
 34 35  1  0
 35 36  2  0
 35 37  1  0
 37 38  1  0
 37 39  1  0
 39 40  1  0
 40 41  2  0
 40 42  1  0
 42 43  1  0
 42 44  1  0
 44 45  1  0
 45 46  2  0
 18 47  1  0
 47 48  2  0
 47 49  1  0
 49 50  1  0
 50 51  1  0
 50 52  1  0
 52 53  2  0
 52 54  1  0
 54 55  1  0
 55 56  1  0
 55 57  1  0
 57 58  2  0
 57 59  1  0
 59 60  1  0
 60 61  1  0
 60 62  1  0
 62 63  2  0
 62 64  1  0
 64 65  1  0
 65 66  1  0
 66 67  1  0
 66 68  2  0
 65 69  1  0
 69 70  1  0
 70 71  1  0
 45  5  1  0
 14  9  2  0
 71 11  1  0
  1 72  1  0
  1 73  1  0
  1 74  1  0
  4 75  1  0
  5 76  1  1
  6 77  1  0
  6 78  1  0
  8 79  1  0
  8 80  1  0
 10 81  1  0
 12 82  1  0
 14 83  1  0
 15 84  1  0
 15 85  1  0
 17 86  1  0
 17 87  1  0
 18 88  1  1
 19 89  1  0
 22 90  1  6
 23 91  1  0
 23 92  1  0
 23 93  1  0
 24 94  1  0
 27 95  1  1
 28 96  1  0
 28 97  1  0
 28 98  1  0
 29 99  1  0
 32100  1  6
 33101  1  0
 33102  1  0
 33103  1  0
 34104  1  0
 37105  1  6
 38106  1  0
 38107  1  0
 38108  1  0
 39109  1  0
 42110  1  1
 43111  1  0
 43112  1  0
 43113  1  0
 44114  1  0
 49115  1  0
 50116  1  6
 51117  1  0
 51118  1  0
 51119  1  0
 54120  1  0
 55121  1  6
 56122  1  0
 56123  1  0
 56124  1  0
 59125  1  0
 60126  1  6
 61127  1  0
 61128  1  0
 61129  1  0
 64130  1  0
 65131  1  1
 67132  1  0
 67133  1  0
 69134  1  0
 69135  1  0
 71136  1  0
 71137  1  0
M  END
