
     RDKit          3D

157159  0  0  0  0  0  0  0  0999 V2000
   12.4393    1.6185    0.6148 C   0  0  0  0  0  0  0  0  0  0  0  0
   12.2634    0.6008   -0.4723 C   0  0  0  0  0  0  0  0  0  0  0  0
   13.2722   -0.0451   -0.8656 O   0  0  0  0  0  0  0  0  0  0  0  0
   10.9881    0.3374   -1.0751 N   0  0  0  0  0  0  0  0  0  0  0  0
    9.7135    0.8538   -0.5596 C   0  0  1  0  0  0  0  0  0  0  0  0
    9.3905    2.2173   -1.1964 C   0  0  0  0  0  0  0  0  0  0  0  0
    8.1660    3.1276   -0.1744 S   0  0  0  0  0  0  0  0  0  0  0  0
    6.8028    3.1952   -1.3964 C   0  0  0  0  0  0  0  0  0  0  0  0
    5.4854    3.1905   -0.6692 C   0  0  0  0  0  0  0  0  0  0  0  0
    4.6318    4.3042   -0.6826 C   0  0  0  0  0  0  0  0  0  0  0  0
    3.3971    4.2659   -0.0051 C   0  0  0  0  0  0  0  0  0  0  0  0
    3.0393    3.0964    0.6979 C   0  0  0  0  0  0  0  0  0  0  0  0
    3.8844    1.9752    0.7142 C   0  0  0  0  0  0  0  0  0  0  0  0
    5.1130    2.0398    0.0381 C   0  0  0  0  0  0  0  0  0  0  0  0
    3.5003    0.7438    1.4918 C   0  0  0  0  0  0  0  0  0  0  0  0
    2.9392   -0.6140    0.3935 S   0  0  0  0  0  0  0  0  0  0  0  0
    4.5958   -1.2333   -0.0837 C   0  0  0  0  0  0  0  0  0  0  0  0
    4.6449   -2.7735   -0.1530 C   0  0  1  0  0  0  0  0  0  0  0  0
    5.7710   -3.1975   -1.0035 N   0  0  0  0  0  0  0  0  0  0  0  0
    7.1717   -2.8803   -0.8570 C   0  0  0  0  0  0  0  0  0  0  0  0
    7.9388   -3.1487   -1.8196 O   0  0  0  0  0  0  0  0  0  0  0  0
    7.7652   -2.2390    0.3867 C   0  0  1  0  0  0  0  0  0  0  0  0
    9.1135   -2.8730    0.7504 C   0  0  0  0  0  0  0  0  0  0  0  0
    7.9230   -0.7831    0.2494 N   0  0  0  0  0  0  0  0  0  0  0  0
    8.6160   -0.1486   -0.8372 C   0  0  0  0  0  0  0  0  0  0  0  0
    8.3250   -0.4449   -2.0266 O   0  0  0  0  0  0  0  0  0  0  0  0
    4.7025   -3.4332    1.2200 C   0  0  0  0  0  0  0  0  0  0  0  0
    4.7119   -2.7110    2.2549 O   0  0  0  0  0  0  0  0  0  0  0  0
    4.8003   -4.8575    1.3961 N   0  0  0  0  0  0  0  0  0  0  0  0
    4.0265   -5.8823    0.6813 C   0  0  2  0  0  0  0  0  0  0  0  0
    4.5171   -6.0580   -0.7622 C   0  0  0  0  0  0  0  0  0  0  0  0
    2.5307   -5.6517    0.7858 C   0  0  0  0  0  0  0  0  0  0  0  0
    2.0762   -4.8068    1.5983 O   0  0  0  0  0  0  0  0  0  0  0  0
    1.6229   -6.4971    0.0599 N   0  0  0  0  0  0  0  0  0  0  0  0
    0.3774   -6.9898    0.6548 C   0  0  2  0  0  0  0  0  0  0  0  0
    0.7052   -8.0741    1.6901 C   0  0  0  0  0  0  0  0  0  0  0  0
   -0.5271   -7.5397   -0.4205 C   0  0  0  0  0  0  0  0  0  0  0  0
   -0.1518   -8.5340   -1.1015 O   0  0  0  0  0  0  0  0  0  0  0  0
   -1.7464   -6.8740   -0.7759 N   0  0  0  0  0  0  0  0  0  0  0  0
   -2.9544   -6.7880    0.0575 C   0  0  2  0  0  0  0  0  0  0  0  0
   -2.9074   -7.6999    1.2907 C   0  0  0  0  0  0  0  0  0  0  0  0
   -4.1618   -7.1405   -0.7709 C   0  0  0  0  0  0  0  0  0  0  0  0
   -4.1020   -8.0786   -1.6151 O   0  0  0  0  0  0  0  0  0  0  0  0
   -5.3934   -6.4398   -0.5673 N   0  0  0  0  0  0  0  0  0  0  0  0
   -5.9825   -5.5632   -1.5898 C   0  0  2  0  0  0  0  0  0  0  0  0
   -6.3925   -6.3571   -2.8354 C   0  0  0  0  0  0  0  0  0  0  0  0
   -5.0196   -4.4463   -1.9303 C   0  0  0  0  0  0  0  0  0  0  0  0
   -4.0320   -4.7069   -2.6742 O   0  0  0  0  0  0  0  0  0  0  0  0
   -5.1427   -3.1029   -1.4114 N   0  0  0  0  0  0  0  0  0  0  0  0
   -6.1459   -2.5995   -0.4566 C   0  0  2  0  0  0  0  0  0  0  0  0
   -6.1616   -3.4363    0.8357 C   0  0  0  0  0  0  0  0  0  0  0  0
   -7.5131   -2.4732   -1.1021 C   0  0  0  0  0  0  0  0  0  0  0  0
   -7.6833   -2.9223   -2.2690 O   0  0  0  0  0  0  0  0  0  0  0  0
   -8.6296   -1.8477   -0.4467 N   0  0  0  0  0  0  0  0  0  0  0  0
   -8.5196   -0.8930    0.6601 C   0  0  2  0  0  0  0  0  0  0  0  0
   -9.7273   -1.0364    1.5919 C   0  0  0  0  0  0  0  0  0  0  0  0
   -8.4437    0.5151    0.1358 C   0  0  0  0  0  0  0  0  0  0  0  0
   -9.2872    0.8994   -0.7219 O   0  0  0  0  0  0  0  0  0  0  0  0
   -7.4549    1.4271    0.6437 N   0  0  0  0  0  0  0  0  0  0  0  0
   -7.6176    2.8875    0.6753 C   0  0  2  0  0  0  0  0  0  0  0  0
   -8.9524    3.2721    1.3311 C   0  0  0  0  0  0  0  0  0  0  0  0
   -7.4926    3.5010   -0.7033 C   0  0  0  0  0  0  0  0  0  0  0  0
   -7.5119    2.7667   -1.7269 O   0  0  0  0  0  0  0  0  0  0  0  0
   -7.3953    4.9224   -0.8792 N   0  0  0  0  0  0  0  0  0  0  0  0
   -6.3963    5.7477   -0.1850 C   0  0  2  0  0  0  0  0  0  0  0  0
   -6.9828    6.3450    1.0991 C   0  0  0  0  0  0  0  0  0  0  0  0
   -5.9283    6.8621   -1.0954 C   0  0  0  0  0  0  0  0  0  0  0  0
   -6.7820    7.6085   -1.6472 O   0  0  0  0  0  0  0  0  0  0  0  0
   -4.5378    7.0762   -1.3757 N   0  0  0  0  0  0  0  0  0  0  0  0
   -3.5182    7.1173   -0.3281 C   0  0  2  0  0  0  0  0  0  0  0  0
   -3.3913    8.5443    0.1936 C   0  0  0  0  0  0  0  0  0  0  0  0
   -2.2314    6.5490   -0.8742 C   0  0  0  0  0  0  0  0  0  0  0  0
   -2.1824    5.3134   -1.1230 O   0  0  0  0  0  0  0  0  0  0  0  0
   -1.1188    7.3722   -1.2737 N   0  0  0  0  0  0  0  0  0  0  0  0
   -0.0213    7.7904   -0.3806 C   0  0  1  0  0  0  0  0  0  0  0  0
   -0.2504    9.2047    0.0959 C   0  0  0  0  0  0  0  0  0  0  0  0
   -0.4210   10.2537   -0.8596 N   0  0  0  0  0  0  0  0  0  0  0  0
   -0.2685    9.4813    1.3257 O   0  0  0  0  0  0  0  0  0  0  0  0
    0.2140    6.7985    0.7792 C   0  0  0  0  0  0  0  0  0  0  0  0
    0.7570    5.1618    0.1653 S   0  0  0  0  0  0  0  0  0  0  0  0
    2.5562    5.5219    0.0845 C   0  0  0  0  0  0  0  0  0  0  0  0
   11.8824    1.3277    1.5316 H   0  0  0  0  0  0  0  0  0  0  0  0
   13.5153    1.7159    0.8758 H   0  0  0  0  0  0  0  0  0  0  0  0
   12.0843    2.6096    0.2603 H   0  0  0  0  0  0  0  0  0  0  0  0
   10.9762   -0.2724   -1.9226 H   0  0  0  0  0  0  0  0  0  0  0  0
    9.7940    0.9777    0.5411 H   0  0  0  0  0  0  0  0  0  0  0  0
    9.0700    2.0989   -2.2536 H   0  0  0  0  0  0  0  0  0  0  0  0
   10.3059    2.8405   -1.2236 H   0  0  0  0  0  0  0  0  0  0  0  0
    6.9187    4.1096   -2.0119 H   0  0  0  0  0  0  0  0  0  0  0  0
    6.8243    2.3190   -2.0771 H   0  0  0  0  0  0  0  0  0  0  0  0
    4.9408    5.2070   -1.1983 H   0  0  0  0  0  0  0  0  0  0  0  0
    2.1096    3.0617    1.2520 H   0  0  0  0  0  0  0  0  0  0  0  0
    5.7936    1.2095    0.0734 H   0  0  0  0  0  0  0  0  0  0  0  0
    4.3419    0.4163    2.1347 H   0  0  0  0  0  0  0  0  0  0  0  0
    2.6632    0.9699    2.1852 H   0  0  0  0  0  0  0  0  0  0  0  0
    4.8413   -0.8091   -1.0820 H   0  0  0  0  0  0  0  0  0  0  0  0
    5.3644   -0.8867    0.6296 H   0  0  0  0  0  0  0  0  0  0  0  0
    3.7029   -3.1112   -0.6355 H   0  0  0  0  0  0  0  0  0  0  0  0
    5.5093   -3.6583   -1.9031 H   0  0  0  0  0  0  0  0  0  0  0  0
    7.0996   -2.4346    1.2446 H   0  0  0  0  0  0  0  0  0  0  0  0
    9.4921   -2.4221    1.6944 H   0  0  0  0  0  0  0  0  0  0  0  0
    8.9958   -3.9664    0.9028 H   0  0  0  0  0  0  0  0  0  0  0  0
    9.8647   -2.6942   -0.0491 H   0  0  0  0  0  0  0  0  0  0  0  0
    7.8385   -0.2319    1.1326 H   0  0  0  0  0  0  0  0  0  0  0  0
    5.3050   -5.1758    2.2526 H   0  0  0  0  0  0  0  0  0  0  0  0
    4.2199   -6.8549    1.1840 H   0  0  0  0  0  0  0  0  0  0  0  0
    4.0010   -5.3519   -1.4509 H   0  0  0  0  0  0  0  0  0  0  0  0
    4.2962   -7.0907   -1.1080 H   0  0  0  0  0  0  0  0  0  0  0  0
    5.6165   -5.9227   -0.8139 H   0  0  0  0  0  0  0  0  0  0  0  0
    1.9474   -6.9131   -0.8419 H   0  0  0  0  0  0  0  0  0  0  0  0
   -0.1428   -6.1489    1.1647 H   0  0  0  0  0  0  0  0  0  0  0  0
   -0.2188   -8.5087    2.1212 H   0  0  0  0  0  0  0  0  0  0  0  0
    1.2979   -8.8918    1.2228 H   0  0  0  0  0  0  0  0  0  0  0  0
    1.2976   -7.6346    2.5209 H   0  0  0  0  0  0  0  0  0  0  0  0
   -1.7905   -6.4625   -1.7375 H   0  0  0  0  0  0  0  0  0  0  0  0
   -3.0634   -5.7398    0.4089 H   0  0  0  0  0  0  0  0  0  0  0  0
   -2.1667   -7.3188    2.0171 H   0  0  0  0  0  0  0  0  0  0  0  0
   -3.8917   -7.7019    1.8061 H   0  0  0  0  0  0  0  0  0  0  0  0
   -2.6571   -8.7426    1.0056 H   0  0  0  0  0  0  0  0  0  0  0  0
   -5.6902   -6.2794    0.4193 H   0  0  0  0  0  0  0  0  0  0  0  0
   -6.9222   -5.1448   -1.1848 H   0  0  0  0  0  0  0  0  0  0  0  0
   -6.8997   -5.6841   -3.5639 H   0  0  0  0  0  0  0  0  0  0  0  0
   -5.5102   -6.8135   -3.3366 H   0  0  0  0  0  0  0  0  0  0  0  0
   -7.1025   -7.1653   -2.5544 H   0  0  0  0  0  0  0  0  0  0  0  0
   -4.3843   -2.4321   -1.6785 H   0  0  0  0  0  0  0  0  0  0  0  0
   -5.8322   -1.5716   -0.1758 H   0  0  0  0  0  0  0  0  0  0  0  0
   -5.1980   -3.9720    0.9677 H   0  0  0  0  0  0  0  0  0  0  0  0
   -6.9929   -4.1724    0.8498 H   0  0  0  0  0  0  0  0  0  0  0  0
   -6.2780   -2.7916    1.7303 H   0  0  0  0  0  0  0  0  0  0  0  0
   -9.5455   -1.8930   -0.9469 H   0  0  0  0  0  0  0  0  0  0  0  0
   -7.6219   -1.0982    1.2669 H   0  0  0  0  0  0  0  0  0  0  0  0
   -9.6480   -0.3264    2.4413 H   0  0  0  0  0  0  0  0  0  0  0  0
  -10.6747   -0.8394    1.0455 H   0  0  0  0  0  0  0  0  0  0  0  0
   -9.7605   -2.0670    2.0063 H   0  0  0  0  0  0  0  0  0  0  0  0
   -6.6435    1.0250    1.1663 H   0  0  0  0  0  0  0  0  0  0  0  0
   -6.7995    3.3000    1.2987 H   0  0  0  0  0  0  0  0  0  0  0  0
   -9.0449    2.7653    2.3129 H   0  0  0  0  0  0  0  0  0  0  0  0
   -9.8086    2.9776    0.6949 H   0  0  0  0  0  0  0  0  0  0  0  0
   -9.0076    4.3655    1.4994 H   0  0  0  0  0  0  0  0  0  0  0  0
   -7.8558    5.3051   -1.7372 H   0  0  0  0  0  0  0  0  0  0  0  0
   -5.5256    5.1107    0.0791 H   0  0  0  0  0  0  0  0  0  0  0  0
   -6.3663    7.1939    1.4573 H   0  0  0  0  0  0  0  0  0  0  0  0
   -6.9972    5.5871    1.9052 H   0  0  0  0  0  0  0  0  0  0  0  0
   -8.0158    6.7113    0.9196 H   0  0  0  0  0  0  0  0  0  0  0  0
   -4.3085    7.5522   -2.2793 H   0  0  0  0  0  0  0  0  0  0  0  0
   -3.8160    6.4853    0.5358 H   0  0  0  0  0  0  0  0  0  0  0  0
   -3.0264    9.2276   -0.6023 H   0  0  0  0  0  0  0  0  0  0  0  0
   -4.3865    8.9090    0.5292 H   0  0  0  0  0  0  0  0  0  0  0  0
   -2.7176    8.5763    1.0722 H   0  0  0  0  0  0  0  0  0  0  0  0
   -0.8835    7.3311   -2.2907 H   0  0  0  0  0  0  0  0  0  0  0  0
    0.9187    7.8274   -0.9801 H   0  0  0  0  0  0  0  0  0  0  0  0
   -0.5271   11.2425   -0.5399 H   0  0  0  0  0  0  0  0  0  0  0  0
   -0.3755   10.0515   -1.8801 H   0  0  0  0  0  0  0  0  0  0  0  0
   -0.7208    6.6600    1.3552 H   0  0  0  0  0  0  0  0  0  0  0  0
    0.9624    7.2027    1.4891 H   0  0  0  0  0  0  0  0  0  0  0  0
    2.8861    6.0857    0.9835 H   0  0  0  0  0  0  0  0  0  0  0  0
    2.7324    6.1560   -0.8120 H   0  0  0  0  0  0  0  0  0  0  0  0
  1  2  1  0
  2  3  2  0
  2  4  1  0
  4  5  1  0
  5  6  1  0
  6  7  1  0
  7  8  1  0
  8  9  1  0
  9 10  1  0
 10 11  2  0
 11 12  1  0
 12 13  2  0
 13 14  1  0
 13 15  1  0
 15 16  1  0
 16 17  1  0
 17 18  1  0
 18 19  1  0
 19 20  1  0
 20 21  2  0
 20 22  1  0
 22 23  1  0
 22 24  1  0
 24 25  1  0
 25 26  2  0
 18 27  1  0
 27 28  2  0
 27 29  1  0
 29 30  1  0
 30 31  1  0
 30 32  1  0
 32 33  2  0
 32 34  1  0
 34 35  1  0
 35 36  1  0
 35 37  1  0
 37 38  2  0
 37 39  1  0
 39 40  1  0
 40 41  1  0
 40 42  1  0
 42 43  2  0
 42 44  1  0
 44 45  1  0
 45 46  1  0
 45 47  1  0
 47 48  2  0
 47 49  1  0
 49 50  1  0
 50 51  1  0
 50 52  1  0
 52 53  2  0
 52 54  1  0
 54 55  1  0
 55 56  1  0
 55 57  1  0
 57 58  2  0
 57 59  1  0
 59 60  1  0
 60 61  1  0
 60 62  1  0
 62 63  2  0
 62 64  1  0
 64 65  1  0
 65 66  1  0
 65 67  1  0
 67 68  2  0
 67 69  1  0
 69 70  1  0
 70 71  1  0
 70 72  1  0
 72 73  2  0
 72 74  1  0
 74 75  1  0
 75 76  1  0
 76 77  1  0
 76 78  2  0
 75 79  1  0
 79 80  1  0
 80 81  1  0
 25  5  1  0
 14  9  2  0
 81 11  1  0
  1 82  1  0
  1 83  1  0
  1 84  1  0
  4 85  1  0
  5 86  1  1
  6 87  1  0
  6 88  1  0
  8 89  1  0
  8 90  1  0
 10 91  1  0
 12 92  1  0
 14 93  1  0
 15 94  1  0
 15 95  1  0
 17 96  1  0
 17 97  1  0
 18 98  1  6
 19 99  1  0
 22100  1  1
 23101  1  0
 23102  1  0
 23103  1  0
 24104  1  0
 29105  1  0
 30106  1  1
 31107  1  0
 31108  1  0
 31109  1  0
 34110  1  0
 35111  1  1
 36112  1  0
 36113  1  0
 36114  1  0
 39115  1  0
 40116  1  1
 41117  1  0
 41118  1  0
 41119  1  0
 44120  1  0
 45121  1  1
 46122  1  0
 46123  1  0
 46124  1  0
 49125  1  0
 50126  1  1
 51127  1  0
 51128  1  0
 51129  1  0
 54130  1  0
 55131  1  1
 56132  1  0
 56133  1  0
 56134  1  0
 59135  1  0
 60136  1  1
 61137  1  0
 61138  1  0
 61139  1  0
 64140  1  0
 65141  1  1
 66142  1  0
 66143  1  0
 66144  1  0
 69145  1  0
 70146  1  1
 71147  1  0
 71148  1  0
 71149  1  0
 74150  1  0
 75151  1  6
 77152  1  0
 77153  1  0
 79154  1  0
 79155  1  0
 81156  1  0
 81157  1  0
M  END
