
     RDKit          3D

167169  0  0  0  0  0  0  0  0999 V2000
   -8.4857    7.2557   -1.4766 C   0  0  0  0  0  0  0  0  0  0  0  0
   -8.5303    7.4250    0.0122 C   0  0  0  0  0  0  0  0  0  0  0  0
   -9.1512    8.4118    0.4912 O   0  0  0  0  0  0  0  0  0  0  0  0
   -7.8794    6.5081    0.9048 N   0  0  0  0  0  0  0  0  0  0  0  0
   -6.8705    5.5304    0.4780 C   0  0  1  0  0  0  0  0  0  0  0  0
   -5.4749    6.1550    0.5887 C   0  0  0  0  0  0  0  0  0  0  0  0
   -4.2442    5.1526   -0.3314 S   0  0  0  0  0  0  0  0  0  0  0  0
   -3.3781    4.4559    1.1232 C   0  0  0  0  0  0  0  0  0  0  0  0
   -2.0835    3.8291    0.6793 C   0  0  0  0  0  0  0  0  0  0  0  0
   -1.1073    4.6232    0.0611 C   0  0  0  0  0  0  0  0  0  0  0  0
    0.0844    4.0543   -0.4022 C   0  0  0  0  0  0  0  0  0  0  0  0
    0.3127    2.6850   -0.2139 C   0  0  0  0  0  0  0  0  0  0  0  0
   -0.6496    1.8800    0.4134 C   0  0  0  0  0  0  0  0  0  0  0  0
   -1.8374    2.4610    0.8775 C   0  0  0  0  0  0  0  0  0  0  0  0
   -0.3987    0.4046    0.5851 C   0  0  0  0  0  0  0  0  0  0  0  0
   -1.6832   -0.5659   -0.2873 S   0  0  0  0  0  0  0  0  0  0  0  0
   -0.6074   -1.9540   -0.7952 C   0  0  0  0  0  0  0  0  0  0  0  0
   -0.1540   -2.8341    0.3942 C   0  0  1  0  0  0  0  0  0  0  0  0
   -1.2590   -3.2015    1.3004 N   0  0  0  0  0  0  0  0  0  0  0  0
   -2.2768   -4.1867    1.0431 C   0  0  0  0  0  0  0  0  0  0  0  0
   -2.5010   -5.0649    1.9163 O   0  0  0  0  0  0  0  0  0  0  0  0
   -3.1493   -4.1376   -0.1808 C   0  0  1  0  0  0  0  0  0  0  0  0
   -2.7277   -5.2207   -1.1846 C   0  0  0  0  0  0  0  0  0  0  0  0
   -4.5641   -4.2269    0.2113 N   0  0  0  0  0  0  0  0  0  0  0  0
   -5.4139   -5.3589   -0.0383 C   0  0  0  0  0  0  0  0  0  0  0  0
   -5.0809   -6.4993    0.3787 O   0  0  0  0  0  0  0  0  0  0  0  0
   -6.6983   -5.1667   -0.8019 C   0  0  1  0  0  0  0  0  0  0  0  0
   -6.8533   -6.2397   -1.9005 C   0  0  0  0  0  0  0  0  0  0  0  0
   -7.8365   -5.2269    0.1196 N   0  0  0  0  0  0  0  0  0  0  0  0
   -8.7635   -4.1562    0.3836 C   0  0  0  0  0  0  0  0  0  0  0  0
   -9.5088   -4.2527    1.4014 O   0  0  0  0  0  0  0  0  0  0  0  0
   -8.8886   -2.9324   -0.5023 C   0  0  1  0  0  0  0  0  0  0  0  0
   -9.4152   -3.3162   -1.8887 C   0  0  0  0  0  0  0  0  0  0  0  0
   -9.8155   -1.9688    0.0944 N   0  0  0  0  0  0  0  0  0  0  0  0
   -9.5427   -0.5642    0.1979 C   0  0  0  0  0  0  0  0  0  0  0  0
  -10.3909    0.2465   -0.2632 O   0  0  0  0  0  0  0  0  0  0  0  0
   -8.3263   -0.0163    0.9096 C   0  0  1  0  0  0  0  0  0  0  0  0
   -7.9683   -0.8485    2.1463 C   0  0  0  0  0  0  0  0  0  0  0  0
   -7.1735    0.0636    0.0045 N   0  0  0  0  0  0  0  0  0  0  0  0
   -6.8996    1.1589   -0.8918 C   0  0  0  0  0  0  0  0  0  0  0  0
   -6.3158    0.9043   -1.9835 O   0  0  0  0  0  0  0  0  0  0  0  0
   -7.2468    2.6026   -0.5892 C   0  0  1  0  0  0  0  0  0  0  0  0
   -8.7143    2.8977   -0.9235 C   0  0  0  0  0  0  0  0  0  0  0  0
   -6.9285    2.9545    0.8013 N   0  0  0  0  0  0  0  0  0  0  0  0
   -6.9479    4.2883    1.3436 C   0  0  0  0  0  0  0  0  0  0  0  0
   -6.9361    4.4270    2.5944 O   0  0  0  0  0  0  0  0  0  0  0  0
    0.6344   -4.0435   -0.0566 C   0  0  0  0  0  0  0  0  0  0  0  0
    0.9976   -4.1458   -1.2608 O   0  0  0  0  0  0  0  0  0  0  0  0
    1.0582   -5.0330    0.8913 N   0  0  0  0  0  0  0  0  0  0  0  0
    2.3494   -5.7096    0.7661 C   0  0  2  0  0  0  0  0  0  0  0  0
    2.3152   -7.0592    1.4866 C   0  0  0  0  0  0  0  0  0  0  0  0
    3.4497   -4.8492    1.3379 C   0  0  0  0  0  0  0  0  0  0  0  0
    3.1726   -3.8074    2.0055 O   0  0  0  0  0  0  0  0  0  0  0  0
    4.8152   -5.2538    1.2003 N   0  0  0  0  0  0  0  0  0  0  0  0
    5.7125   -4.6939    0.1800 C   0  0  2  0  0  0  0  0  0  0  0  0
    4.9996   -4.5195   -1.1690 C   0  0  0  0  0  0  0  0  0  0  0  0
    6.8969   -5.6159    0.0065 C   0  0  0  0  0  0  0  0  0  0  0  0
    6.6869   -6.8495   -0.1443 O   0  0  0  0  0  0  0  0  0  0  0  0
    8.2508   -5.1456    0.0679 N   0  0  0  0  0  0  0  0  0  0  0  0
    8.6884   -3.8323   -0.4299 C   0  0  2  0  0  0  0  0  0  0  0  0
    9.7824   -4.0392   -1.4826 C   0  0  0  0  0  0  0  0  0  0  0  0
    9.2034   -2.9934    0.7166 C   0  0  0  0  0  0  0  0  0  0  0  0
    9.6856   -3.5711    1.7294 O   0  0  0  0  0  0  0  0  0  0  0  0
    9.1327   -1.5585    0.7221 N   0  0  0  0  0  0  0  0  0  0  0  0
    9.0527   -0.7143   -0.4751 C   0  0  2  0  0  0  0  0  0  0  0  0
   10.4658   -0.2961   -0.8980 C   0  0  0  0  0  0  0  0  0  0  0  0
    8.1659    0.4674   -0.1767 C   0  0  0  0  0  0  0  0  0  0  0  0
    6.9233    0.2802   -0.0671 O   0  0  0  0  0  0  0  0  0  0  0  0
    8.6986    1.7832    0.0226 N   0  0  0  0  0  0  0  0  0  0  0  0
    8.7957    2.3738    1.3629 C   0  0  2  0  0  0  0  0  0  0  0  0
    7.4355    2.4202    2.0636 C   0  0  0  0  0  0  0  0  0  0  0  0
    9.4534    3.7390    1.3278 C   0  0  0  0  0  0  0  0  0  0  0  0
   10.2555    4.0406    2.2557 O   0  0  0  0  0  0  0  0  0  0  0  0
    9.3193    4.6499    0.2187 N   0  0  0  0  0  0  0  0  0  0  0  0
    8.0686    5.3050   -0.1911 C   0  0  2  0  0  0  0  0  0  0  0  0
    7.2881    5.8355    1.0277 C   0  0  0  0  0  0  0  0  0  0  0  0
    7.2922    4.4054   -1.1315 C   0  0  0  0  0  0  0  0  0  0  0  0
    7.8557    4.0274   -2.1926 O   0  0  0  0  0  0  0  0  0  0  0  0
    5.9688    3.9376   -0.8512 N   0  0  0  0  0  0  0  0  0  0  0  0
    4.7931    4.7999   -0.9817 C   0  0  1  0  0  0  0  0  0  0  0  0
    4.3742    4.9441   -2.4266 C   0  0  0  0  0  0  0  0  0  0  0  0
    4.6624    3.9347   -3.4018 N   0  0  0  0  0  0  0  0  0  0  0  0
    3.7230    5.9672   -2.7724 O   0  0  0  0  0  0  0  0  0  0  0  0
    3.6468    4.2358   -0.1241 C   0  0  0  0  0  0  0  0  0  0  0  0
    2.3544    5.5003    0.1800 S   0  0  0  0  0  0  0  0  0  0  0  0
    1.1353    4.9109   -1.0587 C   0  0  0  0  0  0  0  0  0  0  0  0
   -8.9340    6.2812   -1.7535 H   0  0  0  0  0  0  0  0  0  0  0  0
   -7.4352    7.2982   -1.8342 H   0  0  0  0  0  0  0  0  0  0  0  0
   -9.0674    8.0563   -1.9838 H   0  0  0  0  0  0  0  0  0  0  0  0
   -7.9860    6.6930    1.9314 H   0  0  0  0  0  0  0  0  0  0  0  0
   -7.0400    5.2691   -0.5825 H   0  0  0  0  0  0  0  0  0  0  0  0
   -5.1961    6.3065    1.6511 H   0  0  0  0  0  0  0  0  0  0  0  0
   -5.4909    7.1592    0.1132 H   0  0  0  0  0  0  0  0  0  0  0  0
   -4.0445    3.7129    1.6135 H   0  0  0  0  0  0  0  0  0  0  0  0
   -3.1453    5.2583    1.8573 H   0  0  0  0  0  0  0  0  0  0  0  0
   -1.2840    5.6876   -0.0731 H   0  0  0  0  0  0  0  0  0  0  0  0
    1.2316    2.2370   -0.5728 H   0  0  0  0  0  0  0  0  0  0  0  0
   -2.5737    1.8456    1.3792 H   0  0  0  0  0  0  0  0  0  0  0  0
    0.6111    0.1511    0.2004 H   0  0  0  0  0  0  0  0  0  0  0  0
   -0.4210    0.1498    1.6643 H   0  0  0  0  0  0  0  0  0  0  0  0
    0.2853   -1.5468   -1.3143 H   0  0  0  0  0  0  0  0  0  0  0  0
   -1.1439   -2.5605   -1.5492 H   0  0  0  0  0  0  0  0  0  0  0  0
    0.5636   -2.2249    0.9845 H   0  0  0  0  0  0  0  0  0  0  0  0
   -1.1286   -2.9273    2.3026 H   0  0  0  0  0  0  0  0  0  0  0  0
   -3.0330   -3.1618   -0.6794 H   0  0  0  0  0  0  0  0  0  0  0  0
   -1.6829   -5.0479   -1.5110 H   0  0  0  0  0  0  0  0  0  0  0  0
   -3.3861   -5.1800   -2.0772 H   0  0  0  0  0  0  0  0  0  0  0  0
   -2.7871   -6.2364   -0.7303 H   0  0  0  0  0  0  0  0  0  0  0  0
   -5.0270   -3.3489    0.5472 H   0  0  0  0  0  0  0  0  0  0  0  0
   -6.6400   -4.1799   -1.3005 H   0  0  0  0  0  0  0  0  0  0  0  0
   -5.8724   -6.6488   -2.2169 H   0  0  0  0  0  0  0  0  0  0  0  0
   -7.3332   -5.7987   -2.7971 H   0  0  0  0  0  0  0  0  0  0  0  0
   -7.4852   -7.0823   -1.5475 H   0  0  0  0  0  0  0  0  0  0  0  0
   -7.9431   -6.0950    0.6929 H   0  0  0  0  0  0  0  0  0  0  0  0
   -7.8927   -2.4774   -0.6217 H   0  0  0  0  0  0  0  0  0  0  0  0
  -10.3790   -3.8629   -1.8076 H   0  0  0  0  0  0  0  0  0  0  0  0
   -9.5817   -2.3973   -2.4905 H   0  0  0  0  0  0  0  0  0  0  0  0
   -8.6892   -3.9458   -2.4368 H   0  0  0  0  0  0  0  0  0  0  0  0
  -10.8187   -2.2569    0.1793 H   0  0  0  0  0  0  0  0  0  0  0  0
   -8.5794    0.9892    1.2954 H   0  0  0  0  0  0  0  0  0  0  0  0
   -8.8359   -0.8971    2.8386 H   0  0  0  0  0  0  0  0  0  0  0  0
   -7.1231   -0.3743    2.6861 H   0  0  0  0  0  0  0  0  0  0  0  0
   -7.6683   -1.8785    1.8660 H   0  0  0  0  0  0  0  0  0  0  0  0
   -6.5640   -0.7775   -0.0881 H   0  0  0  0  0  0  0  0  0  0  0  0
   -6.6122    3.2178   -1.2655 H   0  0  0  0  0  0  0  0  0  0  0  0
   -9.0009    2.4173   -1.8796 H   0  0  0  0  0  0  0  0  0  0  0  0
   -9.3904    2.5578   -0.1172 H   0  0  0  0  0  0  0  0  0  0  0  0
   -8.8740    3.9894   -1.0383 H   0  0  0  0  0  0  0  0  0  0  0  0
   -6.6454    2.2005    1.4666 H   0  0  0  0  0  0  0  0  0  0  0  0
    0.3848   -5.3234    1.6421 H   0  0  0  0  0  0  0  0  0  0  0  0
    2.5627   -5.9111   -0.3030 H   0  0  0  0  0  0  0  0  0  0  0  0
    2.1439   -6.9210    2.5744 H   0  0  0  0  0  0  0  0  0  0  0  0
    3.2698   -7.6083    1.3398 H   0  0  0  0  0  0  0  0  0  0  0  0
    1.4976   -7.6853    1.0704 H   0  0  0  0  0  0  0  0  0  0  0  0
    5.2611   -5.6236    2.0700 H   0  0  0  0  0  0  0  0  0  0  0  0
    6.0579   -3.6941    0.5286 H   0  0  0  0  0  0  0  0  0  0  0  0
    4.1651   -3.7957   -1.0770 H   0  0  0  0  0  0  0  0  0  0  0  0
    5.7078   -4.1302   -1.9316 H   0  0  0  0  0  0  0  0  0  0  0  0
    4.5952   -5.4911   -1.5254 H   0  0  0  0  0  0  0  0  0  0  0  0
    8.9871   -5.8283    0.3640 H   0  0  0  0  0  0  0  0  0  0  0  0
    7.8328   -3.3175   -0.9114 H   0  0  0  0  0  0  0  0  0  0  0  0
    9.4337   -4.7641   -2.2496 H   0  0  0  0  0  0  0  0  0  0  0  0
   10.7106   -4.4338   -1.0144 H   0  0  0  0  0  0  0  0  0  0  0  0
   10.0150   -3.0866   -2.0009 H   0  0  0  0  0  0  0  0  0  0  0  0
    9.3549   -1.0799    1.6265 H   0  0  0  0  0  0  0  0  0  0  0  0
    8.5965   -1.2637   -1.3177 H   0  0  0  0  0  0  0  0  0  0  0  0
   10.4260    0.3045   -1.8292 H   0  0  0  0  0  0  0  0  0  0  0  0
   11.0901   -1.1911   -1.0914 H   0  0  0  0  0  0  0  0  0  0  0  0
   10.9654    0.2989   -0.1023 H   0  0  0  0  0  0  0  0  0  0  0  0
    9.2419    2.2039   -0.7722 H   0  0  0  0  0  0  0  0  0  0  0  0
    9.4418    1.7073    1.9750 H   0  0  0  0  0  0  0  0  0  0  0  0
    6.6508    2.8005    1.3819 H   0  0  0  0  0  0  0  0  0  0  0  0
    7.4813    3.0582    2.9701 H   0  0  0  0  0  0  0  0  0  0  0  0
    7.1429    1.3989    2.3802 H   0  0  0  0  0  0  0  0  0  0  0  0
   10.2030    5.1022   -0.1072 H   0  0  0  0  0  0  0  0  0  0  0  0
    8.3392    6.2046   -0.7901 H   0  0  0  0  0  0  0  0  0  0  0  0
    7.9958    6.2697    1.7657 H   0  0  0  0  0  0  0  0  0  0  0  0
    6.6971    5.0489    1.5306 H   0  0  0  0  0  0  0  0  0  0  0  0
    6.6121    6.6617    0.7252 H   0  0  0  0  0  0  0  0  0  0  0  0
    5.8150    2.9098   -0.9420 H   0  0  0  0  0  0  0  0  0  0  0  0
    5.0383    5.8136   -0.5990 H   0  0  0  0  0  0  0  0  0  0  0  0
    5.2060    3.0725   -3.1672 H   0  0  0  0  0  0  0  0  0  0  0  0
    4.2907    4.0360   -4.3779 H   0  0  0  0  0  0  0  0  0  0  0  0
    3.2315    3.3295   -0.6022 H   0  0  0  0  0  0  0  0  0  0  0  0
    4.0482    3.9305    0.8659 H   0  0  0  0  0  0  0  0  0  0  0  0
    1.6152    4.3586   -1.8937 H   0  0  0  0  0  0  0  0  0  0  0  0
    0.6565    5.8048   -1.5101 H   0  0  0  0  0  0  0  0  0  0  0  0
  1  2  1  0
  2  3  2  0
  2  4  1  0
  4  5  1  0
  5  6  1  0
  6  7  1  0
  7  8  1  0
  8  9  1  0
  9 10  1  0
 10 11  2  0
 11 12  1  0
 12 13  2  0
 13 14  1  0
 13 15  1  0
 15 16  1  0
 16 17  1  0
 17 18  1  0
 18 19  1  0
 19 20  1  0
 20 21  2  0
 20 22  1  0
 22 23  1  0
 22 24  1  0
 24 25  1  0
 25 26  2  0
 25 27  1  0
 27 28  1  0
 27 29  1  0
 29 30  1  0
 30 31  2  0
 30 32  1  0
 32 33  1  0
 32 34  1  0
 34 35  1  0
 35 36  2  0
 35 37  1  0
 37 38  1  0
 37 39  1  0
 39 40  1  0
 40 41  2  0
 40 42  1  0
 42 43  1  0
 42 44  1  0
 44 45  1  0
 45 46  2  0
 18 47  1  0
 47 48  2  0
 47 49  1  0
 49 50  1  0
 50 51  1  0
 50 52  1  0
 52 53  2  0
 52 54  1  0
 54 55  1  0
 55 56  1  0
 55 57  1  0
 57 58  2  0
 57 59  1  0
 59 60  1  0
 60 61  1  0
 60 62  1  0
 62 63  2  0
 62 64  1  0
 64 65  1  0
 65 66  1  0
 65 67  1  0
 67 68  2  0
 67 69  1  0
 69 70  1  0
 70 71  1  0
 70 72  1  0
 72 73  2  0
 72 74  1  0
 74 75  1  0
 75 76  1  0
 75 77  1  0
 77 78  2  0
 77 79  1  0
 79 80  1  0
 80 81  1  0
 81 82  1  0
 81 83  2  0
 80 84  1  0
 84 85  1  0
 85 86  1  0
 45  5  1  0
 14  9  2  0
 86 11  1  0
  1 87  1  0
  1 88  1  0
  1 89  1  0
  4 90  1  0
  5 91  1  6
  6 92  1  0
  6 93  1  0
  8 94  1  0
  8 95  1  0
 10 96  1  0
 12 97  1  0
 14 98  1  0
 15 99  1  0
 15100  1  0
 17101  1  0
 17102  1  0
 18103  1  1
 19104  1  0
 22105  1  6
 23106  1  0
 23107  1  0
 23108  1  0
 24109  1  0
 27110  1  6
 28111  1  0
 28112  1  0
 28113  1  0
 29114  1  0
 32115  1  6
 33116  1  0
 33117  1  0
 33118  1  0
 34119  1  0
 37120  1  1
 38121  1  0
 38122  1  0
 38123  1  0
 39124  1  0
 42125  1  6
 43126  1  0
 43127  1  0
 43128  1  0
 44129  1  0
 49130  1  0
 50131  1  6
 51132  1  0
 51133  1  0
 51134  1  0
 54135  1  0
 55136  1  1
 56137  1  0
 56138  1  0
 56139  1  0
 59140  1  0
 60141  1  6
 61142  1  0
 61143  1  0
 61144  1  0
 64145  1  0
 65146  1  6
 66147  1  0
 66148  1  0
 66149  1  0
 69150  1  0
 70151  1  1
 71152  1  0
 71153  1  0
 71154  1  0
 74155  1  0
 75156  1  6
 76157  1  0
 76158  1  0
 76159  1  0
 79160  1  0
 80161  1  1
 82162  1  0
 82163  1  0
 84164  1  0
 84165  1  0
 86166  1  0
 86167  1  0
M  END
