
     RDKit          3D

147149  0  0  0  0  0  0  0  0999 V2000
    5.4472   -8.4511   -0.9780 C   0  0  0  0  0  0  0  0  0  0  0  0
    5.0836   -7.2510   -0.1694 C   0  0  0  0  0  0  0  0  0  0  0  0
    4.9808   -7.3552    1.0831 O   0  0  0  0  0  0  0  0  0  0  0  0
    4.8545   -5.9943   -0.8234 N   0  0  0  0  0  0  0  0  0  0  0  0
    4.4974   -4.7515   -0.1332 C   0  0  1  0  0  0  0  0  0  0  0  0
    3.1465   -4.8752    0.6154 C   0  0  0  0  0  0  0  0  0  0  0  0
    1.8655   -5.8114   -0.3057 S   0  0  0  0  0  0  0  0  0  0  0  0
    1.6040   -4.6671   -1.7088 C   0  0  0  0  0  0  0  0  0  0  0  0
    0.6002   -3.5996   -1.3739 C   0  0  0  0  0  0  0  0  0  0  0  0
   -0.7627   -3.8067   -1.6431 C   0  0  0  0  0  0  0  0  0  0  0  0
   -1.6884   -2.7658   -1.4742 C   0  0  0  0  0  0  0  0  0  0  0  0
   -1.2393   -1.5169   -1.0317 C   0  0  0  0  0  0  0  0  0  0  0  0
    0.1140   -1.3059   -0.7152 C   0  0  0  0  0  0  0  0  0  0  0  0
    1.0329   -2.3461   -0.9197 C   0  0  0  0  0  0  0  0  0  0  0  0
    0.6157    0.0745   -0.3763 C   0  0  0  0  0  0  0  0  0  0  0  0
   -0.5163    0.9527    0.7799 S   0  0  0  0  0  0  0  0  0  0  0  0
   -0.6520    2.5134   -0.1708 C   0  0  0  0  0  0  0  0  0  0  0  0
   -0.7739    3.7274    0.7829 C   0  0  1  0  0  0  0  0  0  0  0  0
   -0.3033    4.9442    0.1041 N   0  0  0  0  0  0  0  0  0  0  0  0
    1.0587    5.2164   -0.2711 C   0  0  0  0  0  0  0  0  0  0  0  0
    1.2956    6.2375   -0.9700 O   0  0  0  0  0  0  0  0  0  0  0  0
    2.2289    4.3407    0.1468 C   0  0  1  0  0  0  0  0  0  0  0  0
    2.9666    3.8444   -1.1075 C   0  0  0  0  0  0  0  0  0  0  0  0
    3.0987    5.1083    1.0460 N   0  0  0  0  0  0  0  0  0  0  0  0
    4.4736    4.7705    1.2859 C   0  0  0  0  0  0  0  0  0  0  0  0
    4.7677    4.0747    2.2963 O   0  0  0  0  0  0  0  0  0  0  0  0
    5.5633    5.2667    0.3631 C   0  0  1  0  0  0  0  0  0  0  0  0
    5.3159    6.7221   -0.0417 C   0  0  0  0  0  0  0  0  0  0  0  0
    6.8796    5.1532    1.0067 N   0  0  0  0  0  0  0  0  0  0  0  0
    7.7682    4.0339    0.8467 C   0  0  0  0  0  0  0  0  0  0  0  0
    8.9845    4.1702    1.1689 O   0  0  0  0  0  0  0  0  0  0  0  0
    7.2974    2.7013    0.3052 C   0  0  1  0  0  0  0  0  0  0  0  0
    7.8393    2.4802   -1.1106 C   0  0  0  0  0  0  0  0  0  0  0  0
    7.7484    1.6164    1.1806 N   0  0  0  0  0  0  0  0  0  0  0  0
    6.8103    0.7859    1.8655 C   0  0  0  0  0  0  0  0  0  0  0  0
    5.8751    1.3126    2.5250 O   0  0  0  0  0  0  0  0  0  0  0  0
    6.8640   -0.7015    1.6898 C   0  0  1  0  0  0  0  0  0  0  0  0
    6.8129   -1.4296    3.0336 C   0  0  0  0  0  0  0  0  0  0  0  0
    5.7449   -1.1135    0.8396 N   0  0  0  0  0  0  0  0  0  0  0  0
    5.9216   -1.5292   -0.5223 C   0  0  0  0  0  0  0  0  0  0  0  0
    5.3114   -0.9104   -1.4339 O   0  0  0  0  0  0  0  0  0  0  0  0
    6.7581   -2.7349   -0.8869 C   0  0  1  0  0  0  0  0  0  0  0  0
    8.1631   -2.3199   -1.3357 C   0  0  0  0  0  0  0  0  0  0  0  0
    6.8121   -3.6835    0.2338 N   0  0  0  0  0  0  0  0  0  0  0  0
    5.6419   -4.3285    0.7662 C   0  0  0  0  0  0  0  0  0  0  0  0
    5.6158   -4.6192    1.9882 O   0  0  0  0  0  0  0  0  0  0  0  0
   -2.1782    3.9564    1.3095 C   0  0  0  0  0  0  0  0  0  0  0  0
   -2.3361    4.7765    2.2543 O   0  0  0  0  0  0  0  0  0  0  0  0
   -3.3249    3.2757    0.7702 N   0  0  0  0  0  0  0  0  0  0  0  0
   -4.3775    3.9284   -0.0256 C   0  0  2  0  0  0  0  0  0  0  0  0
   -3.8311    4.3744   -1.3857 C   0  0  0  0  0  0  0  0  0  0  0  0
   -5.0063    5.1116    0.6951 C   0  0  0  0  0  0  0  0  0  0  0  0
   -4.2840    6.1035    0.9865 O   0  0  0  0  0  0  0  0  0  0  0  0
   -6.4168    5.2039    0.9680 N   0  0  0  0  0  0  0  0  0  0  0  0
   -7.4256    4.2431    0.5048 C   0  0  2  0  0  0  0  0  0  0  0  0
   -8.8146    4.8883    0.5328 C   0  0  0  0  0  0  0  0  0  0  0  0
   -7.4120    3.0171    1.3869 C   0  0  0  0  0  0  0  0  0  0  0  0
   -7.4324    3.1611    2.6370 O   0  0  0  0  0  0  0  0  0  0  0  0
   -7.3637    1.6927    0.8400 N   0  0  0  0  0  0  0  0  0  0  0  0
   -8.2459    1.2562   -0.2445 C   0  0  2  0  0  0  0  0  0  0  0  0
   -9.6556    0.9840    0.2899 C   0  0  0  0  0  0  0  0  0  0  0  0
   -7.6512    0.0617   -0.9604 C   0  0  0  0  0  0  0  0  0  0  0  0
   -7.4745    0.1298   -2.2053 O   0  0  0  0  0  0  0  0  0  0  0  0
   -7.1677   -1.0978   -0.2616 N   0  0  0  0  0  0  0  0  0  0  0  0
   -7.9906   -1.9439    0.6072 C   0  0  2  0  0  0  0  0  0  0  0  0
   -7.5210   -1.8225    2.0578 C   0  0  0  0  0  0  0  0  0  0  0  0
   -7.9796   -3.3746    0.1193 C   0  0  0  0  0  0  0  0  0  0  0  0
   -9.0821   -3.9465   -0.0940 O   0  0  0  0  0  0  0  0  0  0  0  0
   -6.7701   -4.0656   -0.2233 N   0  0  0  0  0  0  0  0  0  0  0  0
   -5.7297   -4.4261    0.7454 C   0  0  1  0  0  0  0  0  0  0  0  0
   -5.7162   -5.9246    0.9437 C   0  0  0  0  0  0  0  0  0  0  0  0
   -6.9064   -6.5990    1.3478 N   0  0  0  0  0  0  0  0  0  0  0  0
   -4.6667   -6.5990    0.7583 O   0  0  0  0  0  0  0  0  0  0  0  0
   -4.3695   -3.8520    0.3012 C   0  0  0  0  0  0  0  0  0  0  0  0
   -3.8968   -4.4525   -1.3679 S   0  0  0  0  0  0  0  0  0  0  0  0
   -3.1030   -2.9173   -1.9687 C   0  0  0  0  0  0  0  0  0  0  0  0
    5.5542   -9.3483   -0.3286 H   0  0  0  0  0  0  0  0  0  0  0  0
    4.6546   -8.6499   -1.7290 H   0  0  0  0  0  0  0  0  0  0  0  0
    6.4077   -8.2693   -1.5008 H   0  0  0  0  0  0  0  0  0  0  0  0
    4.9511   -5.9670   -1.8632 H   0  0  0  0  0  0  0  0  0  0  0  0
    4.3639   -3.9576   -0.8888 H   0  0  0  0  0  0  0  0  0  0  0  0
    2.7687   -3.8600    0.8686 H   0  0  0  0  0  0  0  0  0  0  0  0
    3.2873   -5.4063    1.5766 H   0  0  0  0  0  0  0  0  0  0  0  0
    2.5461   -4.2260   -2.0724 H   0  0  0  0  0  0  0  0  0  0  0  0
    1.2228   -5.2748   -2.5560 H   0  0  0  0  0  0  0  0  0  0  0  0
   -1.0872   -4.7585   -2.0483 H   0  0  0  0  0  0  0  0  0  0  0  0
   -1.9342   -0.6903   -0.9798 H   0  0  0  0  0  0  0  0  0  0  0  0
    2.0908   -2.1693   -0.7646 H   0  0  0  0  0  0  0  0  0  0  0  0
    0.7523    0.6164   -1.3336 H   0  0  0  0  0  0  0  0  0  0  0  0
    1.6054    0.0115    0.1163 H   0  0  0  0  0  0  0  0  0  0  0  0
   -1.5099    2.4539   -0.8720 H   0  0  0  0  0  0  0  0  0  0  0  0
    0.2442    2.6451   -0.7997 H   0  0  0  0  0  0  0  0  0  0  0  0
   -0.1309    3.5566    1.6693 H   0  0  0  0  0  0  0  0  0  0  0  0
   -1.0077    5.6627   -0.1810 H   0  0  0  0  0  0  0  0  0  0  0  0
    1.8796    3.4449    0.6963 H   0  0  0  0  0  0  0  0  0  0  0  0
    3.4313    4.6936   -1.6507 H   0  0  0  0  0  0  0  0  0  0  0  0
    2.2553    3.3420   -1.7989 H   0  0  0  0  0  0  0  0  0  0  0  0
    3.7456    3.1024   -0.8286 H   0  0  0  0  0  0  0  0  0  0  0  0
    2.6192    5.5864    1.8436 H   0  0  0  0  0  0  0  0  0  0  0  0
    5.5607    4.6711   -0.5706 H   0  0  0  0  0  0  0  0  0  0  0  0
    5.3076    7.3880    0.8526 H   0  0  0  0  0  0  0  0  0  0  0  0
    6.1132    7.0630   -0.7397 H   0  0  0  0  0  0  0  0  0  0  0  0
    4.3410    6.8199   -0.5698 H   0  0  0  0  0  0  0  0  0  0  0  0
    7.2139    5.9478    1.5976 H   0  0  0  0  0  0  0  0  0  0  0  0
    6.1950    2.6808    0.2524 H   0  0  0  0  0  0  0  0  0  0  0  0
    7.4759    1.4989   -1.4950 H   0  0  0  0  0  0  0  0  0  0  0  0
    8.9490    2.4697   -1.1097 H   0  0  0  0  0  0  0  0  0  0  0  0
    7.4791    3.2830   -1.7913 H   0  0  0  0  0  0  0  0  0  0  0  0
    8.7645    1.3518    1.1910 H   0  0  0  0  0  0  0  0  0  0  0  0
    7.8296   -0.9592    1.2030 H   0  0  0  0  0  0  0  0  0  0  0  0
    6.9819   -2.5130    2.8830 H   0  0  0  0  0  0  0  0  0  0  0  0
    5.8202   -1.2826    3.5205 H   0  0  0  0  0  0  0  0  0  0  0  0
    7.6089   -1.0434    3.7094 H   0  0  0  0  0  0  0  0  0  0  0  0
    4.7769   -0.8612    1.1440 H   0  0  0  0  0  0  0  0  0  0  0  0
    6.2895   -3.2371   -1.7624 H   0  0  0  0  0  0  0  0  0  0  0  0
    8.1127   -1.4661   -2.0489 H   0  0  0  0  0  0  0  0  0  0  0  0
    8.6495   -3.1743   -1.8583 H   0  0  0  0  0  0  0  0  0  0  0  0
    8.8059   -2.0328   -0.4811 H   0  0  0  0  0  0  0  0  0  0  0  0
    7.7180   -3.8139    0.7439 H   0  0  0  0  0  0  0  0  0  0  0  0
   -3.2880    2.2348    0.7281 H   0  0  0  0  0  0  0  0  0  0  0  0
   -5.1490    3.1599   -0.2365 H   0  0  0  0  0  0  0  0  0  0  0  0
   -4.6622    4.7652   -2.0161 H   0  0  0  0  0  0  0  0  0  0  0  0
   -3.0682    5.1726   -1.2677 H   0  0  0  0  0  0  0  0  0  0  0  0
   -3.3737    3.5080   -1.9137 H   0  0  0  0  0  0  0  0  0  0  0  0
   -6.7440    6.0714    1.4533 H   0  0  0  0  0  0  0  0  0  0  0  0
   -7.2110    3.9787   -0.5537 H   0  0  0  0  0  0  0  0  0  0  0  0
   -9.1123    5.1542    1.5707 H   0  0  0  0  0  0  0  0  0  0  0  0
   -8.8138    5.8078   -0.0861 H   0  0  0  0  0  0  0  0  0  0  0  0
   -9.5752    4.1982    0.1053 H   0  0  0  0  0  0  0  0  0  0  0  0
   -6.9322    0.9630    1.4481 H   0  0  0  0  0  0  0  0  0  0  0  0
   -8.3421    2.0705   -0.9943 H   0  0  0  0  0  0  0  0  0  0  0  0
   -9.6211    0.4280    1.2508 H   0  0  0  0  0  0  0  0  0  0  0  0
  -10.1703    1.9476    0.4948 H   0  0  0  0  0  0  0  0  0  0  0  0
  -10.2587    0.4239   -0.4542 H   0  0  0  0  0  0  0  0  0  0  0  0
   -6.2207   -1.4456   -0.5413 H   0  0  0  0  0  0  0  0  0  0  0  0
   -9.0470   -1.6057    0.5669 H   0  0  0  0  0  0  0  0  0  0  0  0
   -7.9026   -0.8797    2.5035 H   0  0  0  0  0  0  0  0  0  0  0  0
   -7.9160   -2.6598    2.6726 H   0  0  0  0  0  0  0  0  0  0  0  0
   -6.4110   -1.8043    2.1185 H   0  0  0  0  0  0  0  0  0  0  0  0
   -6.7643   -4.5560   -1.1438 H   0  0  0  0  0  0  0  0  0  0  0  0
   -5.9658   -3.9947    1.7370 H   0  0  0  0  0  0  0  0  0  0  0  0
   -6.9478   -7.6394    1.3525 H   0  0  0  0  0  0  0  0  0  0  0  0
   -7.7811   -6.0609    1.5423 H   0  0  0  0  0  0  0  0  0  0  0  0
   -3.5773   -4.1433    1.0219 H   0  0  0  0  0  0  0  0  0  0  0  0
   -4.4395   -2.7431    0.3254 H   0  0  0  0  0  0  0  0  0  0  0  0
   -3.7288   -2.0371   -1.7083 H   0  0  0  0  0  0  0  0  0  0  0  0
   -3.0739   -2.9643   -3.0797 H   0  0  0  0  0  0  0  0  0  0  0  0
  1  2  1  0
  2  3  2  0
  2  4  1  0
  4  5  1  0
  5  6  1  0
  6  7  1  0
  7  8  1  0
  8  9  1  0
  9 10  1  0
 10 11  2  0
 11 12  1  0
 12 13  2  0
 13 14  1  0
 13 15  1  0
 15 16  1  0
 16 17  1  0
 17 18  1  0
 18 19  1  0
 19 20  1  0
 20 21  2  0
 20 22  1  0
 22 23  1  0
 22 24  1  0
 24 25  1  0
 25 26  2  0
 25 27  1  0
 27 28  1  0
 27 29  1  0
 29 30  1  0
 30 31  2  0
 30 32  1  0
 32 33  1  0
 32 34  1  0
 34 35  1  0
 35 36  2  0
 35 37  1  0
 37 38  1  0
 37 39  1  0
 39 40  1  0
 40 41  2  0
 40 42  1  0
 42 43  1  0
 42 44  1  0
 44 45  1  0
 45 46  2  0
 18 47  1  0
 47 48  2  0
 47 49  1  0
 49 50  1  0
 50 51  1  0
 50 52  1  0
 52 53  2  0
 52 54  1  0
 54 55  1  0
 55 56  1  0
 55 57  1  0
 57 58  2  0
 57 59  1  0
 59 60  1  0
 60 61  1  0
 60 62  1  0
 62 63  2  0
 62 64  1  0
 64 65  1  0
 65 66  1  0
 65 67  1  0
 67 68  2  0
 67 69  1  0
 69 70  1  0
 70 71  1  0
 71 72  1  0
 71 73  2  0
 70 74  1  0
 74 75  1  0
 75 76  1  0
 45  5  1  0
 14  9  2  0
 76 11  1  0
  1 77  1  0
  1 78  1  0
  1 79  1  0
  4 80  1  0
  5 81  1  6
  6 82  1  0
  6 83  1  0
  8 84  1  0
  8 85  1  0
 10 86  1  0
 12 87  1  0
 14 88  1  0
 15 89  1  0
 15 90  1  0
 17 91  1  0
 17 92  1  0
 18 93  1  1
 19 94  1  0
 22 95  1  1
 23 96  1  0
 23 97  1  0
 23 98  1  0
 24 99  1  0
 27100  1  6
 28101  1  0
 28102  1  0
 28103  1  0
 29104  1  0
 32105  1  6
 33106  1  0
 33107  1  0
 33108  1  0
 34109  1  0
 37110  1  6
 38111  1  0
 38112  1  0
 38113  1  0
 39114  1  0
 42115  1  6
 43116  1  0
 43117  1  0
 43118  1  0
 44119  1  0
 49120  1  0
 50121  1  6
 51122  1  0
 51123  1  0
 51124  1  0
 54125  1  0
 55126  1  6
 56127  1  0
 56128  1  0
 56129  1  0
 59130  1  0
 60131  1  6
 61132  1  0
 61133  1  0
 61134  1  0
 64135  1  0
 65136  1  1
 66137  1  0
 66138  1  0
 66139  1  0
 69140  1  0
 70141  1  1
 72142  1  0
 72143  1  0
 74144  1  0
 74145  1  0
 76146  1  0
 76147  1  0
M  END
