
     RDKit          3D

147149  0  0  0  0  0  0  0  0999 V2000
    6.5340   -6.9204    1.5322 C   0  0  0  0  0  0  0  0  0  0  0  0
    6.2905   -6.6069    0.0879 C   0  0  0  0  0  0  0  0  0  0  0  0
    6.6541   -7.4379   -0.7848 O   0  0  0  0  0  0  0  0  0  0  0  0
    5.6561   -5.3854   -0.3284 N   0  0  0  0  0  0  0  0  0  0  0  0
    5.0312   -4.4343    0.6030 C   0  0  2  0  0  0  0  0  0  0  0  0
    4.0642   -3.4785   -0.1222 C   0  0  0  0  0  0  0  0  0  0  0  0
    2.7469   -4.4117   -0.9870 S   0  0  0  0  0  0  0  0  0  0  0  0
    1.6569   -4.6853    0.4569 C   0  0  0  0  0  0  0  0  0  0  0  0
    0.3746   -3.9314    0.2551 C   0  0  0  0  0  0  0  0  0  0  0  0
    0.1417   -2.7300    0.9420 C   0  0  0  0  0  0  0  0  0  0  0  0
   -1.0359   -1.9981    0.7187 C   0  0  0  0  0  0  0  0  0  0  0  0
   -1.9896   -2.4872   -0.1898 C   0  0  0  0  0  0  0  0  0  0  0  0
   -1.7549   -3.6741   -0.9031 C   0  0  0  0  0  0  0  0  0  0  0  0
   -0.5679   -4.3884   -0.6788 C   0  0  0  0  0  0  0  0  0  0  0  0
   -2.7192   -4.1214   -1.9686 C   0  0  0  0  0  0  0  0  0  0  0  0
   -3.3225   -5.8281   -1.6841 S   0  0  0  0  0  0  0  0  0  0  0  0
   -4.2734   -5.5118   -0.1460 C   0  0  0  0  0  0  0  0  0  0  0  0
   -5.6435   -4.8656   -0.4161 C   0  0  1  0  0  0  0  0  0  0  0  0
   -6.4945   -5.7651   -1.2765 C   0  0  0  0  0  0  0  0  0  0  0  0
   -7.0563   -6.9655   -0.7475 N   0  0  0  0  0  0  0  0  0  0  0  0
   -6.7197   -5.4489   -2.4745 O   0  0  0  0  0  0  0  0  0  0  0  0
   -6.3262   -4.5938    0.8546 N   0  0  0  0  0  0  0  0  0  0  0  0
   -7.4114   -3.6599    1.0163 C   0  0  0  0  0  0  0  0  0  0  0  0
   -7.8060   -3.3948    2.1866 O   0  0  0  0  0  0  0  0  0  0  0  0
   -8.1051   -2.9931   -0.1517 C   0  0  1  0  0  0  0  0  0  0  0  0
   -9.5927   -3.3632   -0.1492 C   0  0  0  0  0  0  0  0  0  0  0  0
   -7.9443   -1.5376   -0.0764 N   0  0  0  0  0  0  0  0  0  0  0  0
   -8.3106   -0.6709   -1.1633 C   0  0  0  0  0  0  0  0  0  0  0  0
   -8.5193   -1.1601   -2.3073 O   0  0  0  0  0  0  0  0  0  0  0  0
   -8.3528    0.8306   -0.9723 C   0  0  1  0  0  0  0  0  0  0  0  0
   -9.3648    1.4869   -1.9171 C   0  0  0  0  0  0  0  0  0  0  0  0
   -8.7075    1.1614    0.4103 N   0  0  0  0  0  0  0  0  0  0  0  0
   -7.9404    2.0484    1.2355 C   0  0  0  0  0  0  0  0  0  0  0  0
   -7.8996    1.8406    2.4782 O   0  0  0  0  0  0  0  0  0  0  0  0
   -7.2532    3.2662    0.6695 C   0  0  1  0  0  0  0  0  0  0  0  0
   -7.8029    4.5375    1.3198 C   0  0  0  0  0  0  0  0  0  0  0  0
   -5.8113    3.1723    0.8937 N   0  0  0  0  0  0  0  0  0  0  0  0
   -4.8952    3.0557   -0.1981 C   0  0  0  0  0  0  0  0  0  0  0  0
   -4.6768    1.9209   -0.7027 O   0  0  0  0  0  0  0  0  0  0  0  0
   -4.2571    4.2842   -0.8054 C   0  0  1  0  0  0  0  0  0  0  0  0
   -4.1493    5.4668    0.1655 C   0  0  0  0  0  0  0  0  0  0  0  0
   -2.9580    3.9756   -1.4249 N   0  0  0  0  0  0  0  0  0  0  0  0
   -1.7582    3.5017   -0.7808 C   0  0  0  0  0  0  0  0  0  0  0  0
   -0.7703    3.2404   -1.5150 O   0  0  0  0  0  0  0  0  0  0  0  0
   -1.6475    3.2860    0.7244 C   0  0  1  0  0  0  0  0  0  0  0  0
   -0.8104    2.0676    1.1794 C   0  0  0  0  0  0  0  0  0  0  0  0
   -0.9770    0.6273    0.0541 S   0  0  0  0  0  0  0  0  0  0  0  0
   -1.2154   -0.6442    1.3405 C   0  0  0  0  0  0  0  0  0  0  0  0
   -1.2125    4.5052    1.4270 N   0  0  0  0  0  0  0  0  0  0  0  0
   -0.0089    5.2788    1.2323 C   0  0  0  0  0  0  0  0  0  0  0  0
    0.0995    6.3737    1.8518 O   0  0  0  0  0  0  0  0  0  0  0  0
    1.1168    4.8831    0.3049 C   0  0  1  0  0  0  0  0  0  0  0  0
    1.1405    5.8290   -0.9057 C   0  0  0  0  0  0  0  0  0  0  0  0
    2.3810    4.8532    1.0586 N   0  0  0  0  0  0  0  0  0  0  0  0
    3.3940    5.8658    1.0243 C   0  0  0  0  0  0  0  0  0  0  0  0
    3.5561    6.6036    2.0339 O   0  0  0  0  0  0  0  0  0  0  0  0
    4.3852    5.9160   -0.1143 C   0  0  1  0  0  0  0  0  0  0  0  0
    4.8469    7.3512   -0.3942 C   0  0  0  0  0  0  0  0  0  0  0  0
    5.5373    5.0634    0.1889 N   0  0  0  0  0  0  0  0  0  0  0  0
    5.5627    3.6794   -0.1927 C   0  0  0  0  0  0  0  0  0  0  0  0
    4.4845    3.0276   -0.2726 O   0  0  0  0  0  0  0  0  0  0  0  0
    6.8682    2.9857   -0.4996 C   0  0  1  0  0  0  0  0  0  0  0  0
    7.6598    3.7784   -1.5460 C   0  0  0  0  0  0  0  0  0  0  0  0
    7.6596    2.8307    0.7249 N   0  0  0  0  0  0  0  0  0  0  0  0
    8.4749    1.6847    1.0317 C   0  0  0  0  0  0  0  0  0  0  0  0
    8.8902    1.5412    2.2129 O   0  0  0  0  0  0  0  0  0  0  0  0
    8.8552    0.6521   -0.0127 C   0  0  1  0  0  0  0  0  0  0  0  0
   10.3483    0.3246    0.0719 C   0  0  0  0  0  0  0  0  0  0  0  0
    8.0619   -0.5686    0.1630 N   0  0  0  0  0  0  0  0  0  0  0  0
    8.0039   -1.5757   -0.8651 C   0  0  0  0  0  0  0  0  0  0  0  0
    8.2654   -1.2584   -2.0583 O   0  0  0  0  0  0  0  0  0  0  0  0
    7.6346   -3.0141   -0.5707 C   0  0  1  0  0  0  0  0  0  0  0  0
    8.7861   -3.9434   -0.9664 C   0  0  0  0  0  0  0  0  0  0  0  0
    7.3232   -3.2136    0.8502 N   0  0  0  0  0  0  0  0  0  0  0  0
    6.0672   -3.6617    1.3921 C   0  0  0  0  0  0  0  0  0  0  0  0
    5.8380   -3.4541    2.6160 O   0  0  0  0  0  0  0  0  0  0  0  0
    7.1998   -6.1560    1.9811 H   0  0  0  0  0  0  0  0  0  0  0  0
    5.5713   -6.9499    2.0861 H   0  0  0  0  0  0  0  0  0  0  0  0
    7.0217   -7.9122    1.6353 H   0  0  0  0  0  0  0  0  0  0  0  0
    5.5382   -5.2416   -1.3575 H   0  0  0  0  0  0  0  0  0  0  0  0
    4.4193   -5.0158    1.3246 H   0  0  0  0  0  0  0  0  0  0  0  0
    4.6018   -2.8722   -0.8761 H   0  0  0  0  0  0  0  0  0  0  0  0
    3.6113   -2.7647    0.5988 H   0  0  0  0  0  0  0  0  0  0  0  0
    2.1404   -4.3810    1.4081 H   0  0  0  0  0  0  0  0  0  0  0  0
    1.4402   -5.7696    0.5403 H   0  0  0  0  0  0  0  0  0  0  0  0
    0.8882   -2.3505    1.6276 H   0  0  0  0  0  0  0  0  0  0  0  0
   -2.8879   -1.9118   -0.3767 H   0  0  0  0  0  0  0  0  0  0  0  0
   -0.3621   -5.2854   -1.2492 H   0  0  0  0  0  0  0  0  0  0  0  0
   -2.1913   -4.1049   -2.9448 H   0  0  0  0  0  0  0  0  0  0  0  0
   -3.5754   -3.4257   -2.0651 H   0  0  0  0  0  0  0  0  0  0  0  0
   -3.6850   -4.8698    0.5406 H   0  0  0  0  0  0  0  0  0  0  0  0
   -4.4159   -6.4871    0.3641 H   0  0  0  0  0  0  0  0  0  0  0  0
   -5.4651   -3.9018   -0.9337 H   0  0  0  0  0  0  0  0  0  0  0  0
   -7.6731   -7.5645   -1.3436 H   0  0  0  0  0  0  0  0  0  0  0  0
   -6.9252   -7.2247    0.2529 H   0  0  0  0  0  0  0  0  0  0  0  0
   -5.9687   -5.0548    1.7216 H   0  0  0  0  0  0  0  0  0  0  0  0
   -7.6776   -3.3422   -1.1079 H   0  0  0  0  0  0  0  0  0  0  0  0
  -10.0965   -2.9508   -1.0511 H   0  0  0  0  0  0  0  0  0  0  0  0
   -9.7155   -4.4688   -0.1627 H   0  0  0  0  0  0  0  0  0  0  0  0
  -10.0953   -2.9538    0.7535 H   0  0  0  0  0  0  0  0  0  0  0  0
   -7.5647   -1.1086    0.7975 H   0  0  0  0  0  0  0  0  0  0  0  0
   -7.3404    1.2163   -1.2155 H   0  0  0  0  0  0  0  0  0  0  0  0
   -9.3973    2.5813   -1.7358 H   0  0  0  0  0  0  0  0  0  0  0  0
   -9.0709    1.3227   -2.9760 H   0  0  0  0  0  0  0  0  0  0  0  0
  -10.3800    1.0692   -1.7478 H   0  0  0  0  0  0  0  0  0  0  0  0
   -9.5116    0.6564    0.8496 H   0  0  0  0  0  0  0  0  0  0  0  0
   -7.4592    3.3478   -0.4187 H   0  0  0  0  0  0  0  0  0  0  0  0
   -7.3683    5.4338    0.8278 H   0  0  0  0  0  0  0  0  0  0  0  0
   -7.5492    4.5664    2.4034 H   0  0  0  0  0  0  0  0  0  0  0  0
   -8.9069    4.5825    1.2040 H   0  0  0  0  0  0  0  0  0  0  0  0
   -5.4342    3.1602    1.8699 H   0  0  0  0  0  0  0  0  0  0  0  0
   -4.9439    4.6111   -1.6213 H   0  0  0  0  0  0  0  0  0  0  0  0
   -3.4111    6.2105   -0.2086 H   0  0  0  0  0  0  0  0  0  0  0  0
   -5.1316    5.9747    0.2519 H   0  0  0  0  0  0  0  0  0  0  0  0
   -3.8528    5.1340    1.1781 H   0  0  0  0  0  0  0  0  0  0  0  0
   -2.9127    4.0780   -2.4639 H   0  0  0  0  0  0  0  0  0  0  0  0
   -2.6663    3.0475    1.0835 H   0  0  0  0  0  0  0  0  0  0  0  0
   -1.1536    1.7941    2.2038 H   0  0  0  0  0  0  0  0  0  0  0  0
    0.2652    2.3109    1.2818 H   0  0  0  0  0  0  0  0  0  0  0  0
   -0.4840   -0.4939    2.1660 H   0  0  0  0  0  0  0  0  0  0  0  0
   -2.2427   -0.5542    1.7571 H   0  0  0  0  0  0  0  0  0  0  0  0
   -1.8493    4.8501    2.1806 H   0  0  0  0  0  0  0  0  0  0  0  0
    0.9708    3.8666   -0.0846 H   0  0  0  0  0  0  0  0  0  0  0  0
    1.4802    6.8457   -0.6185 H   0  0  0  0  0  0  0  0  0  0  0  0
    0.1221    5.9168   -1.3394 H   0  0  0  0  0  0  0  0  0  0  0  0
    1.7942    5.4219   -1.7012 H   0  0  0  0  0  0  0  0  0  0  0  0
    2.4224    4.1897    1.8662 H   0  0  0  0  0  0  0  0  0  0  0  0
    3.9099    5.5471   -1.0426 H   0  0  0  0  0  0  0  0  0  0  0  0
    3.9799    7.9831   -0.6876 H   0  0  0  0  0  0  0  0  0  0  0  0
    5.3348    7.7949    0.5001 H   0  0  0  0  0  0  0  0  0  0  0  0
    5.5781    7.3523   -1.2300 H   0  0  0  0  0  0  0  0  0  0  0  0
    6.4138    5.5017    0.5518 H   0  0  0  0  0  0  0  0  0  0  0  0
    6.6252    1.9867   -0.9201 H   0  0  0  0  0  0  0  0  0  0  0  0
    8.5833    3.2314   -1.8301 H   0  0  0  0  0  0  0  0  0  0  0  0
    7.0431    3.9190   -2.4616 H   0  0  0  0  0  0  0  0  0  0  0  0
    7.9545    4.7741   -1.1522 H   0  0  0  0  0  0  0  0  0  0  0  0
    7.6092    3.5841    1.4457 H   0  0  0  0  0  0  0  0  0  0  0  0
    8.6733    1.0620   -1.0258 H   0  0  0  0  0  0  0  0  0  0  0  0
   10.5875   -0.1636    1.0415 H   0  0  0  0  0  0  0  0  0  0  0  0
   10.9535    1.2517   -0.0270 H   0  0  0  0  0  0  0  0  0  0  0  0
   10.6391   -0.3675   -0.7474 H   0  0  0  0  0  0  0  0  0  0  0  0
    7.5949   -0.7399    1.0818 H   0  0  0  0  0  0  0  0  0  0  0  0
    6.7664   -3.2599   -1.2075 H   0  0  0  0  0  0  0  0  0  0  0  0
    9.6982   -3.7005   -0.3818 H   0  0  0  0  0  0  0  0  0  0  0  0
    8.5097   -4.9985   -0.7669 H   0  0  0  0  0  0  0  0  0  0  0  0
    9.0131   -3.8432   -2.0510 H   0  0  0  0  0  0  0  0  0  0  0  0
    8.0810   -3.0011    1.5376 H   0  0  0  0  0  0  0  0  0  0  0  0
  1  2  1  0
  2  3  2  0
  2  4  1  0
  4  5  1  0
  5  6  1  0
  6  7  1  0
  7  8  1  0
  8  9  1  0
  9 10  1  0
 10 11  2  0
 11 12  1  0
 12 13  2  0
 13 14  1  0
 13 15  1  0
 15 16  1  0
 16 17  1  0
 17 18  1  0
 18 19  1  0
 19 20  1  0
 19 21  2  0
 18 22  1  0
 22 23  1  0
 23 24  2  0
 23 25  1  0
 25 26  1  0
 25 27  1  0
 27 28  1  0
 28 29  2  0
 28 30  1  0
 30 31  1  0
 30 32  1  0
 32 33  1  0
 33 34  2  0
 33 35  1  0
 35 36  1  0
 35 37  1  0
 37 38  1  0
 38 39  2  0
 38 40  1  0
 40 41  1  0
 40 42  1  0
 42 43  1  0
 43 44  2  0
 43 45  1  0
 45 46  1  0
 46 47  1  0
 47 48  1  0
 45 49  1  0
 49 50  1  0
 50 51  2  0
 50 52  1  0
 52 53  1  0
 52 54  1  0
 54 55  1  0
 55 56  2  0
 55 57  1  0
 57 58  1  0
 57 59  1  0
 59 60  1  0
 60 61  2  0
 60 62  1  0
 62 63  1  0
 62 64  1  0
 64 65  1  0
 65 66  2  0
 65 67  1  0
 67 68  1  0
 67 69  1  0
 69 70  1  0
 70 71  2  0
 70 72  1  0
 72 73  1  0
 72 74  1  0
 74 75  1  0
 75 76  2  0
 75  5  1  0
 14  9  2  0
 48 11  1  0
  1 77  1  0
  1 78  1  0
  1 79  1  0
  4 80  1  0
  5 81  1  1
  6 82  1  0
  6 83  1  0
  8 84  1  0
  8 85  1  0
 10 86  1  0
 12 87  1  0
 14 88  1  0
 15 89  1  0
 15 90  1  0
 17 91  1  0
 17 92  1  0
 18 93  1  6
 20 94  1  0
 20 95  1  0
 22 96  1  0
 25 97  1  6
 26 98  1  0
 26 99  1  0
 26100  1  0
 27101  1  0
 30102  1  6
 31103  1  0
 31104  1  0
 31105  1  0
 32106  1  0
 35107  1  6
 36108  1  0
 36109  1  0
 36110  1  0
 37111  1  0
 40112  1  6
 41113  1  0
 41114  1  0
 41115  1  0
 42116  1  0
 45117  1  1
 46118  1  0
 46119  1  0
 48120  1  0
 48121  1  0
 49122  1  0
 52123  1  6
 53124  1  0
 53125  1  0
 53126  1  0
 54127  1  0
 57128  1  6
 58129  1  0
 58130  1  0
 58131  1  0
 59132  1  0
 62133  1  6
 63134  1  0
 63135  1  0
 63136  1  0
 64137  1  0
 67138  1  6
 68139  1  0
 68140  1  0
 68141  1  0
 69142  1  0
 72143  1  6
 73144  1  0
 73145  1  0
 73146  1  0
 74147  1  0
M  END
