
     RDKit          3D

157159  0  0  0  0  0  0  0  0999 V2000
  -10.1062   -2.1369    0.2072 C   0  0  0  0  0  0  0  0  0  0  0  0
   -8.6668   -2.2240    0.6166 C   0  0  0  0  0  0  0  0  0  0  0  0
   -8.3830   -2.6186    1.7818 O   0  0  0  0  0  0  0  0  0  0  0  0
   -7.5929   -1.8728   -0.2690 N   0  0  0  0  0  0  0  0  0  0  0  0
   -7.7435   -1.5221   -1.6869 C   0  0  2  0  0  0  0  0  0  0  0  0
   -7.1537   -2.6279   -2.6087 C   0  0  0  0  0  0  0  0  0  0  0  0
   -5.8193   -3.6398   -1.8436 S   0  0  0  0  0  0  0  0  0  0  0  0
   -4.3723   -2.6747   -2.4013 C   0  0  0  0  0  0  0  0  0  0  0  0
   -3.4938   -2.4036   -1.2138 C   0  0  0  0  0  0  0  0  0  0  0  0
   -3.7623   -1.3159   -0.3712 C   0  0  0  0  0  0  0  0  0  0  0  0
   -2.9999   -1.1124    0.7877 C   0  0  0  0  0  0  0  0  0  0  0  0
   -1.9521   -1.9953    1.0939 C   0  0  0  0  0  0  0  0  0  0  0  0
   -1.6586   -3.0717    0.2393 C   0  0  0  0  0  0  0  0  0  0  0  0
   -2.4349   -3.2701   -0.9101 C   0  0  0  0  0  0  0  0  0  0  0  0
   -0.5584   -4.0397    0.5647 C   0  0  0  0  0  0  0  0  0  0  0  0
   -1.2937   -5.6572    1.0163 S   0  0  0  0  0  0  0  0  0  0  0  0
   -0.3870   -6.7164   -0.1831 C   0  0  0  0  0  0  0  0  0  0  0  0
    0.7433   -7.4916    0.5107 C   0  0  1  0  0  0  0  0  0  0  0  0
    0.1776   -8.4829    1.4970 C   0  0  0  0  0  0  0  0  0  0  0  0
   -0.5614   -9.6190    1.0443 N   0  0  0  0  0  0  0  0  0  0  0  0
    0.3511   -8.3076    2.7316 O   0  0  0  0  0  0  0  0  0  0  0  0
    1.5566   -8.2003   -0.4842 N   0  0  0  0  0  0  0  0  0  0  0  0
    2.8601   -8.7479   -0.2248 C   0  0  0  0  0  0  0  0  0  0  0  0
    3.4232   -9.4282   -1.1305 O   0  0  0  0  0  0  0  0  0  0  0  0
    3.6044   -8.4662    1.0683 C   0  0  1  0  0  0  0  0  0  0  0  0
    4.8671   -9.3204    1.2299 C   0  0  0  0  0  0  0  0  0  0  0  0
    3.9333   -7.0466    1.1895 N   0  0  0  0  0  0  0  0  0  0  0  0
    4.5393   -6.2754    0.1329 C   0  0  0  0  0  0  0  0  0  0  0  0
    5.0235   -6.8548   -0.8761 O   0  0  0  0  0  0  0  0  0  0  0  0
    4.5277   -4.7713    0.1763 C   0  0  1  0  0  0  0  0  0  0  0  0
    3.1028   -4.2420    0.3436 C   0  0  0  0  0  0  0  0  0  0  0  0
    5.3801   -4.2806    1.2611 N   0  0  0  0  0  0  0  0  0  0  0  0
    5.9422   -2.9583    1.2544 C   0  0  0  0  0  0  0  0  0  0  0  0
    5.6740   -2.1782    2.2061 O   0  0  0  0  0  0  0  0  0  0  0  0
    6.8888   -2.4808    0.1760 C   0  0  1  0  0  0  0  0  0  0  0  0
    7.7869   -3.6098   -0.3470 C   0  0  0  0  0  0  0  0  0  0  0  0
    6.1549   -1.8481   -0.9270 N   0  0  0  0  0  0  0  0  0  0  0  0
    6.7308   -0.8174   -1.7440 C   0  0  0  0  0  0  0  0  0  0  0  0
    6.6255   -0.9049   -2.9981 O   0  0  0  0  0  0  0  0  0  0  0  0
    7.4589    0.3631   -1.1337 C   0  0  1  0  0  0  0  0  0  0  0  0
    8.9729    0.1457   -1.2207 C   0  0  0  0  0  0  0  0  0  0  0  0
    7.0891    1.6088   -1.8222 N   0  0  0  0  0  0  0  0  0  0  0  0
    7.3388    2.9384   -1.3317 C   0  0  0  0  0  0  0  0  0  0  0  0
    7.3664    3.8901   -2.1575 O   0  0  0  0  0  0  0  0  0  0  0  0
    7.5210    3.2615    0.1347 C   0  0  1  0  0  0  0  0  0  0  0  0
    8.9223    3.8395    0.3735 C   0  0  0  0  0  0  0  0  0  0  0  0
    6.5040    4.2360    0.5513 N   0  0  0  0  0  0  0  0  0  0  0  0
    5.1034    3.9169    0.5843 C   0  0  0  0  0  0  0  0  0  0  0  0
    4.7412    2.7099    0.5535 O   0  0  0  0  0  0  0  0  0  0  0  0
    4.0276    4.9825    0.6052 C   0  0  1  0  0  0  0  0  0  0  0  0
    4.5627    6.3981    0.8700 C   0  0  0  0  0  0  0  0  0  0  0  0
    3.3116    4.9683   -0.6731 N   0  0  0  0  0  0  0  0  0  0  0  0
    1.9821    5.4835   -0.8412 C   0  0  0  0  0  0  0  0  0  0  0  0
    1.7284    6.1645   -1.8701 O   0  0  0  0  0  0  0  0  0  0  0  0
    0.8935    5.2450    0.1862 C   0  0  1  0  0  0  0  0  0  0  0  0
    0.6654    6.4898    1.0458 C   0  0  0  0  0  0  0  0  0  0  0  0
   -0.3606    4.8011   -0.4397 N   0  0  0  0  0  0  0  0  0  0  0  0
   -1.0126    5.4731   -1.5221 C   0  0  0  0  0  0  0  0  0  0  0  0
   -0.9732    4.9641   -2.6767 O   0  0  0  0  0  0  0  0  0  0  0  0
   -1.8231    6.7190   -1.2931 C   0  0  1  0  0  0  0  0  0  0  0  0
   -1.3348    7.8711   -2.1808 C   0  0  0  0  0  0  0  0  0  0  0  0
   -3.2328    6.4377   -1.5865 N   0  0  0  0  0  0  0  0  0  0  0  0
   -4.3045    6.4556   -0.6266 C   0  0  0  0  0  0  0  0  0  0  0  0
   -5.4923    6.4068   -1.0467 O   0  0  0  0  0  0  0  0  0  0  0  0
   -4.0643    6.5732    0.8629 C   0  0  1  0  0  0  0  0  0  0  0  0
   -4.0271    8.0502    1.2621 C   0  0  0  0  0  0  0  0  0  0  0  0
   -5.1271    5.8814    1.6019 N   0  0  0  0  0  0  0  0  0  0  0  0
   -5.1724    4.4588    1.8100 C   0  0  0  0  0  0  0  0  0  0  0  0
   -5.9768    3.9999    2.6655 O   0  0  0  0  0  0  0  0  0  0  0  0
   -4.3036    3.4843    1.0294 C   0  0  1  0  0  0  0  0  0  0  0  0
   -3.3691    2.7558    2.0207 C   0  0  0  0  0  0  0  0  0  0  0  0
   -2.3049    1.5040    1.2021 S   0  0  0  0  0  0  0  0  0  0  0  0
   -3.3011    0.0473    1.6980 C   0  0  0  0  0  0  0  0  0  0  0  0
   -5.1125    2.5165    0.2646 N   0  0  0  0  0  0  0  0  0  0  0  0
   -6.5292    2.6063    0.0522 C   0  0  0  0  0  0  0  0  0  0  0  0
   -7.0626    3.7171   -0.2168 O   0  0  0  0  0  0  0  0  0  0  0  0
   -7.3598    1.3532    0.0890 C   0  0  1  0  0  0  0  0  0  0  0  0
   -8.5951    1.5485    0.9739 C   0  0  0  0  0  0  0  0  0  0  0  0
   -7.7607    0.9809   -1.2658 N   0  0  0  0  0  0  0  0  0  0  0  0
   -7.1864   -0.1399   -1.9364 C   0  0  0  0  0  0  0  0  0  0  0  0
   -6.2807    0.0612   -2.7852 O   0  0  0  0  0  0  0  0  0  0  0  0
  -10.3534   -2.9563   -0.5086 H   0  0  0  0  0  0  0  0  0  0  0  0
  -10.7551   -2.2495    1.1063 H   0  0  0  0  0  0  0  0  0  0  0  0
  -10.3240   -1.1421   -0.2410 H   0  0  0  0  0  0  0  0  0  0  0  0
   -6.6285   -1.8702    0.1350 H   0  0  0  0  0  0  0  0  0  0  0  0
   -8.8161   -1.4452   -1.9552 H   0  0  0  0  0  0  0  0  0  0  0  0
   -6.8418   -2.2320   -3.5977 H   0  0  0  0  0  0  0  0  0  0  0  0
   -7.9708   -3.3510   -2.8212 H   0  0  0  0  0  0  0  0  0  0  0  0
   -4.6443   -1.7225   -2.8934 H   0  0  0  0  0  0  0  0  0  0  0  0
   -3.8269   -3.2763   -3.1585 H   0  0  0  0  0  0  0  0  0  0  0  0
   -4.5750   -0.6404   -0.6130 H   0  0  0  0  0  0  0  0  0  0  0  0
   -1.3629   -1.8383    1.9916 H   0  0  0  0  0  0  0  0  0  0  0  0
   -2.2262   -4.1152   -1.5576 H   0  0  0  0  0  0  0  0  0  0  0  0
    0.1145   -4.0938   -0.3109 H   0  0  0  0  0  0  0  0  0  0  0  0
    0.0499   -3.6818    1.4203 H   0  0  0  0  0  0  0  0  0  0  0  0
   -1.1212   -7.4280   -0.6251 H   0  0  0  0  0  0  0  0  0  0  0  0
    0.0219   -6.1323   -1.0312 H   0  0  0  0  0  0  0  0  0  0  0  0
    1.3726   -6.7469    1.0386 H   0  0  0  0  0  0  0  0  0  0  0  0
   -0.9580  -10.2997    1.7328 H   0  0  0  0  0  0  0  0  0  0  0  0
   -0.7085   -9.7901    0.0242 H   0  0  0  0  0  0  0  0  0  0  0  0
    1.1643   -8.3516   -1.4413 H   0  0  0  0  0  0  0  0  0  0  0  0
    2.9323   -8.7412    1.9106 H   0  0  0  0  0  0  0  0  0  0  0  0
    5.6231   -9.0866    0.4521 H   0  0  0  0  0  0  0  0  0  0  0  0
    4.6108  -10.4034    1.1711 H   0  0  0  0  0  0  0  0  0  0  0  0
    5.3163   -9.1397    2.2325 H   0  0  0  0  0  0  0  0  0  0  0  0
    3.7242   -6.5753    2.1003 H   0  0  0  0  0  0  0  0  0  0  0  0
    4.9049   -4.4134   -0.7975 H   0  0  0  0  0  0  0  0  0  0  0  0
    2.4495   -4.6553   -0.4520 H   0  0  0  0  0  0  0  0  0  0  0  0
    3.1024   -3.1313    0.2617 H   0  0  0  0  0  0  0  0  0  0  0  0
    2.6877   -4.5225    1.3355 H   0  0  0  0  0  0  0  0  0  0  0  0
    5.2419   -4.7095    2.2067 H   0  0  0  0  0  0  0  0  0  0  0  0
    7.5637   -1.7342    0.6442 H   0  0  0  0  0  0  0  0  0  0  0  0
    8.4984   -3.2060   -1.0994 H   0  0  0  0  0  0  0  0  0  0  0  0
    8.3742   -4.0508    0.4853 H   0  0  0  0  0  0  0  0  0  0  0  0
    7.1951   -4.4100   -0.8360 H   0  0  0  0  0  0  0  0  0  0  0  0
    5.3495   -2.3575   -1.3447 H   0  0  0  0  0  0  0  0  0  0  0  0
    7.1490    0.4190   -0.0752 H   0  0  0  0  0  0  0  0  0  0  0  0
    9.4994    0.9452   -0.6664 H   0  0  0  0  0  0  0  0  0  0  0  0
    9.3075    0.1565   -2.2780 H   0  0  0  0  0  0  0  0  0  0  0  0
    9.2621   -0.8211   -0.7562 H   0  0  0  0  0  0  0  0  0  0  0  0
    6.8151    1.5492   -2.8285 H   0  0  0  0  0  0  0  0  0  0  0  0
    7.4217    2.3673    0.7746 H   0  0  0  0  0  0  0  0  0  0  0  0
    9.7043    3.1274    0.0449 H   0  0  0  0  0  0  0  0  0  0  0  0
    9.0640    4.0448    1.4547 H   0  0  0  0  0  0  0  0  0  0  0  0
    9.0543    4.7937   -0.1810 H   0  0  0  0  0  0  0  0  0  0  0  0
    6.8258    5.1739    0.8829 H   0  0  0  0  0  0  0  0  0  0  0  0
    3.3367    4.7314    1.4370 H   0  0  0  0  0  0  0  0  0  0  0  0
    5.0771    6.4376    1.8527 H   0  0  0  0  0  0  0  0  0  0  0  0
    3.7274    7.1243    0.8947 H   0  0  0  0  0  0  0  0  0  0  0  0
    5.2616    6.7112    0.0653 H   0  0  0  0  0  0  0  0  0  0  0  0
    3.8941    4.9069   -1.5385 H   0  0  0  0  0  0  0  0  0  0  0  0
    1.2153    4.4289    0.8690 H   0  0  0  0  0  0  0  0  0  0  0  0
    0.5217    7.3912    0.4129 H   0  0  0  0  0  0  0  0  0  0  0  0
   -0.2310    6.3480    1.6918 H   0  0  0  0  0  0  0  0  0  0  0  0
    1.5343    6.6619    1.7109 H   0  0  0  0  0  0  0  0  0  0  0  0
   -0.7599    3.8885   -0.1425 H   0  0  0  0  0  0  0  0  0  0  0  0
   -1.6976    7.0491   -0.2502 H   0  0  0  0  0  0  0  0  0  0  0  0
   -0.2640    8.0843   -1.9727 H   0  0  0  0  0  0  0  0  0  0  0  0
   -1.9200    8.7868   -1.9661 H   0  0  0  0  0  0  0  0  0  0  0  0
   -1.4481    7.6116   -3.2562 H   0  0  0  0  0  0  0  0  0  0  0  0
   -3.4872    6.2236   -2.5793 H   0  0  0  0  0  0  0  0  0  0  0  0
   -3.0914    6.1159    1.1513 H   0  0  0  0  0  0  0  0  0  0  0  0
   -3.1344    8.5531    0.8299 H   0  0  0  0  0  0  0  0  0  0  0  0
   -4.9348    8.5788    0.8887 H   0  0  0  0  0  0  0  0  0  0  0  0
   -3.9771    8.1521    2.3683 H   0  0  0  0  0  0  0  0  0  0  0  0
   -5.8584    6.4510    2.0864 H   0  0  0  0  0  0  0  0  0  0  0  0
   -3.6630    4.0164    0.2990 H   0  0  0  0  0  0  0  0  0  0  0  0
   -3.9424    2.3001    2.8532 H   0  0  0  0  0  0  0  0  0  0  0  0
   -2.6931    3.5087    2.4781 H   0  0  0  0  0  0  0  0  0  0  0  0
   -3.0708   -0.2212    2.7546 H   0  0  0  0  0  0  0  0  0  0  0  0
   -4.3898    0.2694    1.6478 H   0  0  0  0  0  0  0  0  0  0  0  0
   -4.6340    1.7211   -0.2050 H   0  0  0  0  0  0  0  0  0  0  0  0
   -6.7448    0.5443    0.5481 H   0  0  0  0  0  0  0  0  0  0  0  0
   -9.3914    2.1020    0.4364 H   0  0  0  0  0  0  0  0  0  0  0  0
   -8.9896    0.5561    1.2697 H   0  0  0  0  0  0  0  0  0  0  0  0
   -8.3266    2.0940    1.9031 H   0  0  0  0  0  0  0  0  0  0  0  0
   -8.2819    1.6800   -1.8433 H   0  0  0  0  0  0  0  0  0  0  0  0
  1  2  1  0
  2  3  2  0
  2  4  1  0
  4  5  1  0
  5  6  1  0
  6  7  1  0
  7  8  1  0
  8  9  1  0
  9 10  1  0
 10 11  2  0
 11 12  1  0
 12 13  2  0
 13 14  1  0
 13 15  1  0
 15 16  1  0
 16 17  1  0
 17 18  1  0
 18 19  1  0
 19 20  1  0
 19 21  2  0
 18 22  1  0
 22 23  1  0
 23 24  2  0
 23 25  1  0
 25 26  1  0
 25 27  1  0
 27 28  1  0
 28 29  2  0
 28 30  1  0
 30 31  1  0
 30 32  1  0
 32 33  1  0
 33 34  2  0
 33 35  1  0
 35 36  1  0
 35 37  1  0
 37 38  1  0
 38 39  2  0
 38 40  1  0
 40 41  1  0
 40 42  1  0
 42 43  1  0
 43 44  2  0
 43 45  1  0
 45 46  1  0
 45 47  1  0
 47 48  1  0
 48 49  2  0
 48 50  1  0
 50 51  1  0
 50 52  1  0
 52 53  1  0
 53 54  2  0
 53 55  1  0
 55 56  1  0
 55 57  1  0
 57 58  1  0
 58 59  2  0
 58 60  1  0
 60 61  1  0
 60 62  1  0
 62 63  1  0
 63 64  2  0
 63 65  1  0
 65 66  1  0
 65 67  1  0
 67 68  1  0
 68 69  2  0
 68 70  1  0
 70 71  1  0
 71 72  1  0
 72 73  1  0
 70 74  1  0
 74 75  1  0
 75 76  2  0
 75 77  1  0
 77 78  1  0
 77 79  1  0
 79 80  1  0
 80 81  2  0
 80  5  1  0
 14  9  2  0
 73 11  1  0
  1 82  1  0
  1 83  1  0
  1 84  1  0
  4 85  1  0
  5 86  1  6
  6 87  1  0
  6 88  1  0
  8 89  1  0
  8 90  1  0
 10 91  1  0
 12 92  1  0
 14 93  1  0
 15 94  1  0
 15 95  1  0
 17 96  1  0
 17 97  1  0
 18 98  1  1
 20 99  1  0
 20100  1  0
 22101  1  0
 25102  1  1
 26103  1  0
 26104  1  0
 26105  1  0
 27106  1  0
 30107  1  6
 31108  1  0
 31109  1  0
 31110  1  0
 32111  1  0
 35112  1  1
 36113  1  0
 36114  1  0
 36115  1  0
 37116  1  0
 40117  1  1
 41118  1  0
 41119  1  0
 41120  1  0
 42121  1  0
 45122  1  1
 46123  1  0
 46124  1  0
 46125  1  0
 47126  1  0
 50127  1  1
 51128  1  0
 51129  1  0
 51130  1  0
 52131  1  0
 55132  1  1
 56133  1  0
 56134  1  0
 56135  1  0
 57136  1  0
 60137  1  1
 61138  1  0
 61139  1  0
 61140  1  0
 62141  1  0
 65142  1  6
 66143  1  0
 66144  1  0
 66145  1  0
 67146  1  0
 70147  1  6
 71148  1  0
 71149  1  0
 73150  1  0
 73151  1  0
 74152  1  0
 77153  1  1
 78154  1  0
 78155  1  0
 78156  1  0
 79157  1  0
M  END
