
     RDKit          3D

157159  0  0  0  0  0  0  0  0999 V2000
   -7.0113    7.3093    0.7098 C   0  0  0  0  0  0  0  0  0  0  0  0
   -6.5914    6.3321   -0.3476 C   0  0  0  0  0  0  0  0  0  0  0  0
   -6.7328    6.6530   -1.5549 O   0  0  0  0  0  0  0  0  0  0  0  0
   -6.0753    5.0266   -0.0324 N   0  0  0  0  0  0  0  0  0  0  0  0
   -5.7236    4.5298    1.3075 C   0  0  1  0  0  0  0  0  0  0  0  0
   -4.4221    5.2211    1.8056 C   0  0  0  0  0  0  0  0  0  0  0  0
   -2.9763    4.0976    1.7502 S   0  0  0  0  0  0  0  0  0  0  0  0
   -2.8356    4.0357   -0.0685 C   0  0  0  0  0  0  0  0  0  0  0  0
   -1.5823    3.2972   -0.4386 C   0  0  0  0  0  0  0  0  0  0  0  0
   -0.3592    3.9747   -0.4918 C   0  0  0  0  0  0  0  0  0  0  0  0
    0.8181    3.2896   -0.8172 C   0  0  0  0  0  0  0  0  0  0  0  0
    0.7672    1.9158   -1.1059 C   0  0  0  0  0  0  0  0  0  0  0  0
   -0.4503    1.2162   -1.0249 C   0  0  0  0  0  0  0  0  0  0  0  0
   -1.6200    1.9138   -0.6868 C   0  0  0  0  0  0  0  0  0  0  0  0
   -0.4924   -0.2656   -1.2792 C   0  0  0  0  0  0  0  0  0  0  0  0
    0.6504   -1.1322   -0.1462 S   0  0  0  0  0  0  0  0  0  0  0  0
   -0.2715   -2.7131   -0.1393 C   0  0  0  0  0  0  0  0  0  0  0  0
    0.6274   -3.8785    0.3199 C   0  0  1  0  0  0  0  0  0  0  0  0
   -0.1393   -5.1255    0.4570 N   0  0  0  0  0  0  0  0  0  0  0  0
   -1.5088   -5.1682    0.8795 C   0  0  0  0  0  0  0  0  0  0  0  0
   -1.8308   -4.6550    1.9843 O   0  0  0  0  0  0  0  0  0  0  0  0
   -2.5807   -5.7163   -0.0286 C   0  0  1  0  0  0  0  0  0  0  0  0
   -1.9979   -6.6515   -1.0959 C   0  0  0  0  0  0  0  0  0  0  0  0
   -3.5743   -6.4474    0.7626 N   0  0  0  0  0  0  0  0  0  0  0  0
   -4.9456   -6.0470    0.9462 C   0  0  0  0  0  0  0  0  0  0  0  0
   -5.5271   -6.4035    2.0089 O   0  0  0  0  0  0  0  0  0  0  0  0
   -5.7156   -5.2264   -0.0765 C   0  0  1  0  0  0  0  0  0  0  0  0
   -5.6679   -5.8773   -1.4640 C   0  0  0  0  0  0  0  0  0  0  0  0
   -7.1217   -5.1009    0.3287 N   0  0  0  0  0  0  0  0  0  0  0  0
   -7.9398   -3.9966   -0.0817 C   0  0  0  0  0  0  0  0  0  0  0  0
   -8.8968   -4.2181   -0.8781 O   0  0  0  0  0  0  0  0  0  0  0  0
   -7.7333   -2.5976    0.4381 C   0  0  1  0  0  0  0  0  0  0  0  0
   -6.9932   -2.5596    1.7809 C   0  0  0  0  0  0  0  0  0  0  0  0
   -7.0292   -1.7836   -0.5528 N   0  0  0  0  0  0  0  0  0  0  0  0
   -7.1064   -0.3468   -0.5814 C   0  0  0  0  0  0  0  0  0  0  0  0
   -6.0326    0.3161   -0.5841 O   0  0  0  0  0  0  0  0  0  0  0  0
   -8.4145    0.4060   -0.6667 C   0  0  1  0  0  0  0  0  0  0  0  0
   -9.4301   -0.2816   -1.5875 C   0  0  0  0  0  0  0  0  0  0  0  0
   -8.9914    0.6075    0.6708 N   0  0  0  0  0  0  0  0  0  0  0  0
   -9.0257    1.8506    1.3956 C   0  0  0  0  0  0  0  0  0  0  0  0
   -9.5774    1.8627    2.5298 O   0  0  0  0  0  0  0  0  0  0  0  0
   -8.4699    3.1436    0.8393 C   0  0  1  0  0  0  0  0  0  0  0  0
   -9.4707    3.7819   -0.1269 C   0  0  0  0  0  0  0  0  0  0  0  0
   -8.1907    4.0851    1.9319 N   0  0  0  0  0  0  0  0  0  0  0  0
   -6.9038    4.6356    2.2589 C   0  0  0  0  0  0  0  0  0  0  0  0
   -6.7766    5.2309    3.3637 O   0  0  0  0  0  0  0  0  0  0  0  0
    1.7353   -4.0900   -0.6895 C   0  0  0  0  0  0  0  0  0  0  0  0
    1.4345   -4.3679   -1.8836 O   0  0  0  0  0  0  0  0  0  0  0  0
    3.1177   -3.9307   -0.3432 N   0  0  0  0  0  0  0  0  0  0  0  0
    3.7047   -4.4490    0.8965 C   0  0  2  0  0  0  0  0  0  0  0  0
    4.2996   -3.3107    1.7254 C   0  0  0  0  0  0  0  0  0  0  0  0
    4.7195   -5.5315    0.5972 C   0  0  0  0  0  0  0  0  0  0  0  0
    4.7692   -6.5356    1.3564 O   0  0  0  0  0  0  0  0  0  0  0  0
    5.5551   -5.5107   -0.5707 N   0  0  0  0  0  0  0  0  0  0  0  0
    6.5011   -4.4227   -0.8423 C   0  0  2  0  0  0  0  0  0  0  0  0
    6.7831   -4.3384   -2.3427 C   0  0  0  0  0  0  0  0  0  0  0  0
    7.7843   -4.6778   -0.0909 C   0  0  0  0  0  0  0  0  0  0  0  0
    8.3630   -5.7911   -0.2335 O   0  0  0  0  0  0  0  0  0  0  0  0
    8.3396   -3.7254    0.8258 N   0  0  0  0  0  0  0  0  0  0  0  0
    8.3741   -2.2762    0.5864 C   0  0  2  0  0  0  0  0  0  0  0  0
    9.7335   -1.9033   -0.0076 C   0  0  0  0  0  0  0  0  0  0  0  0
    8.1082   -1.5329    1.8764 C   0  0  0  0  0  0  0  0  0  0  0  0
    8.2314   -2.1261    2.9823 O   0  0  0  0  0  0  0  0  0  0  0  0
    7.6307   -0.1823    1.8720 N   0  0  0  0  0  0  0  0  0  0  0  0
    8.4995    0.9782    1.6240 C   0  0  2  0  0  0  0  0  0  0  0  0
    9.8232    0.8499    2.3904 C   0  0  0  0  0  0  0  0  0  0  0  0
    7.8111    2.2467    2.0809 C   0  0  0  0  0  0  0  0  0  0  0  0
    7.4042    2.3091    3.2734 O   0  0  0  0  0  0  0  0  0  0  0  0
    7.6381    3.4049    1.2404 N   0  0  0  0  0  0  0  0  0  0  0  0
    8.0478    3.5281   -0.1676 C   0  0  2  0  0  0  0  0  0  0  0  0
    9.5659    3.7282   -0.2715 C   0  0  0  0  0  0  0  0  0  0  0  0
    7.3356    4.7012   -0.7912 C   0  0  0  0  0  0  0  0  0  0  0  0
    7.5270    5.8601   -0.3318 O   0  0  0  0  0  0  0  0  0  0  0  0
    6.3669    4.4974   -1.8257 N   0  0  0  0  0  0  0  0  0  0  0  0
    5.0402    5.1135   -1.7388 C   0  0  1  0  0  0  0  0  0  0  0  0
    5.1396    6.5918   -2.0121 C   0  0  0  0  0  0  0  0  0  0  0  0
    4.9178    7.5430   -0.9691 N   0  0  0  0  0  0  0  0  0  0  0  0
    5.4415    6.9984   -3.1685 O   0  0  0  0  0  0  0  0  0  0  0  0
    4.0622    4.4364   -2.7162 C   0  0  0  0  0  0  0  0  0  0  0  0
    2.3313    4.9310   -2.3895 S   0  0  0  0  0  0  0  0  0  0  0  0
    2.1354    4.0056   -0.8248 C   0  0  0  0  0  0  0  0  0  0  0  0
   -7.3007    8.2748    0.2474 H   0  0  0  0  0  0  0  0  0  0  0  0
   -7.8985    6.9207    1.2497 H   0  0  0  0  0  0  0  0  0  0  0  0
   -6.1892    7.4950    1.4223 H   0  0  0  0  0  0  0  0  0  0  0  0
   -5.9324    4.3703   -0.8342 H   0  0  0  0  0  0  0  0  0  0  0  0
   -5.5134    3.4434    1.2300 H   0  0  0  0  0  0  0  0  0  0  0  0
   -4.5021    5.5625    2.8576 H   0  0  0  0  0  0  0  0  0  0  0  0
   -4.1916    6.1304    1.2069 H   0  0  0  0  0  0  0  0  0  0  0  0
   -3.7183    3.5110   -0.4910 H   0  0  0  0  0  0  0  0  0  0  0  0
   -2.8077    5.0612   -0.4910 H   0  0  0  0  0  0  0  0  0  0  0  0
   -0.3158    5.0301   -0.2588 H   0  0  0  0  0  0  0  0  0  0  0  0
    1.6743    1.3846   -1.3681 H   0  0  0  0  0  0  0  0  0  0  0  0
   -2.5619    1.3820   -0.6085 H   0  0  0  0  0  0  0  0  0  0  0  0
   -0.1865   -0.4781   -2.3260 H   0  0  0  0  0  0  0  0  0  0  0  0
   -1.5264   -0.6482   -1.1412 H   0  0  0  0  0  0  0  0  0  0  0  0
   -0.6880   -2.9390   -1.1455 H   0  0  0  0  0  0  0  0  0  0  0  0
   -1.1172   -2.5778    0.5655 H   0  0  0  0  0  0  0  0  0  0  0  0
    1.0493   -3.6177    1.3147 H   0  0  0  0  0  0  0  0  0  0  0  0
    0.3799   -6.0376    0.4287 H   0  0  0  0  0  0  0  0  0  0  0  0
   -3.0457   -4.8497   -0.5414 H   0  0  0  0  0  0  0  0  0  0  0  0
   -2.8079   -7.0991   -1.7080 H   0  0  0  0  0  0  0  0  0  0  0  0
   -1.3231   -6.0879   -1.7737 H   0  0  0  0  0  0  0  0  0  0  0  0
   -1.4283   -7.4789   -0.6159 H   0  0  0  0  0  0  0  0  0  0  0  0
   -3.2294   -7.2455    1.3445 H   0  0  0  0  0  0  0  0  0  0  0  0
   -5.2546   -4.2211   -0.1371 H   0  0  0  0  0  0  0  0  0  0  0  0
   -5.9010   -6.9626   -1.4031 H   0  0  0  0  0  0  0  0  0  0  0  0
   -6.4110   -5.3964   -2.1363 H   0  0  0  0  0  0  0  0  0  0  0  0
   -4.6772   -5.7397   -1.9350 H   0  0  0  0  0  0  0  0  0  0  0  0
   -7.6319   -5.9955    0.5226 H   0  0  0  0  0  0  0  0  0  0  0  0
   -8.7401   -2.1893    0.6191 H   0  0  0  0  0  0  0  0  0  0  0  0
   -6.9787   -1.5211    2.1702 H   0  0  0  0  0  0  0  0  0  0  0  0
   -7.5090   -3.2047    2.5227 H   0  0  0  0  0  0  0  0  0  0  0  0
   -5.9423   -2.8984    1.6694 H   0  0  0  0  0  0  0  0  0  0  0  0
   -6.1751   -2.2032   -0.9866 H   0  0  0  0  0  0  0  0  0  0  0  0
   -8.1978    1.3772   -1.1491 H   0  0  0  0  0  0  0  0  0  0  0  0
  -10.3167    0.3773   -1.7181 H   0  0  0  0  0  0  0  0  0  0  0  0
   -9.7768   -1.2490   -1.1743 H   0  0  0  0  0  0  0  0  0  0  0  0
   -8.9822   -0.4633   -2.5922 H   0  0  0  0  0  0  0  0  0  0  0  0
   -9.4455   -0.2074    1.1430 H   0  0  0  0  0  0  0  0  0  0  0  0
   -7.5392    2.9108    0.2906 H   0  0  0  0  0  0  0  0  0  0  0  0
  -10.4274    3.9938    0.3959 H   0  0  0  0  0  0  0  0  0  0  0  0
   -9.6794    3.1188   -0.9919 H   0  0  0  0  0  0  0  0  0  0  0  0
   -9.0683    4.7397   -0.5091 H   0  0  0  0  0  0  0  0  0  0  0  0
   -8.9943    4.3675    2.5423 H   0  0  0  0  0  0  0  0  0  0  0  0
    3.7527   -3.5730   -1.0924 H   0  0  0  0  0  0  0  0  0  0  0  0
    2.9099   -4.9167    1.5143 H   0  0  0  0  0  0  0  0  0  0  0  0
    4.8926   -2.6056    1.1048 H   0  0  0  0  0  0  0  0  0  0  0  0
    3.4747   -2.7236    2.1877 H   0  0  0  0  0  0  0  0  0  0  0  0
    4.9461   -3.7092    2.5404 H   0  0  0  0  0  0  0  0  0  0  0  0
    5.7737   -6.4419   -0.9980 H   0  0  0  0  0  0  0  0  0  0  0  0
    6.0536   -3.4653   -0.5404 H   0  0  0  0  0  0  0  0  0  0  0  0
    5.8374   -4.1545   -2.8929 H   0  0  0  0  0  0  0  0  0  0  0  0
    7.4779   -3.4970   -2.5516 H   0  0  0  0  0  0  0  0  0  0  0  0
    7.2312   -5.2815   -2.7136 H   0  0  0  0  0  0  0  0  0  0  0  0
    9.0153   -4.1034    1.5297 H   0  0  0  0  0  0  0  0  0  0  0  0
    7.5934   -1.9784   -0.1440 H   0  0  0  0  0  0  0  0  0  0  0  0
    9.9217   -2.5164   -0.9155 H   0  0  0  0  0  0  0  0  0  0  0  0
   10.5458   -2.0954    0.7222 H   0  0  0  0  0  0  0  0  0  0  0  0
    9.7519   -0.8381   -0.3173 H   0  0  0  0  0  0  0  0  0  0  0  0
    6.6965   -0.0279    2.3224 H   0  0  0  0  0  0  0  0  0  0  0  0
    8.7181    1.0217    0.5422 H   0  0  0  0  0  0  0  0  0  0  0  0
   10.4033    1.7968    2.3319 H   0  0  0  0  0  0  0  0  0  0  0  0
    9.6330    0.6139    3.4599 H   0  0  0  0  0  0  0  0  0  0  0  0
   10.4487    0.0448    1.9543 H   0  0  0  0  0  0  0  0  0  0  0  0
    7.1504    4.2216    1.6859 H   0  0  0  0  0  0  0  0  0  0  0  0
    7.7584    2.6083   -0.7199 H   0  0  0  0  0  0  0  0  0  0  0  0
    9.8558    3.9196   -1.3288 H   0  0  0  0  0  0  0  0  0  0  0  0
   10.1123    2.8288    0.0733 H   0  0  0  0  0  0  0  0  0  0  0  0
    9.8868    4.5913    0.3487 H   0  0  0  0  0  0  0  0  0  0  0  0
    6.5759    3.7964   -2.5777 H   0  0  0  0  0  0  0  0  0  0  0  0
    4.6705    4.9620   -0.7009 H   0  0  0  0  0  0  0  0  0  0  0  0
    4.6806    7.2279   -0.0004 H   0  0  0  0  0  0  0  0  0  0  0  0
    5.0615    8.5618   -1.1463 H   0  0  0  0  0  0  0  0  0  0  0  0
    4.1432    3.3297   -2.6410 H   0  0  0  0  0  0  0  0  0  0  0  0
    4.3171    4.7056   -3.7626 H   0  0  0  0  0  0  0  0  0  0  0  0
    2.1854    4.7206    0.0234 H   0  0  0  0  0  0  0  0  0  0  0  0
    2.9550    3.2758   -0.6724 H   0  0  0  0  0  0  0  0  0  0  0  0
  1  2  1  0
  2  3  2  0
  2  4  1  0
  4  5  1  0
  5  6  1  0
  6  7  1  0
  7  8  1  0
  8  9  1  0
  9 10  2  0
 10 11  1  0
 11 12  2  0
 12 13  1  0
 13 14  2  0
 13 15  1  0
 15 16  1  0
 16 17  1  0
 17 18  1  0
 18 19  1  0
 19 20  1  0
 20 21  2  0
 20 22  1  0
 22 23  1  0
 22 24  1  0
 24 25  1  0
 25 26  2  0
 25 27  1  0
 27 28  1  0
 27 29  1  0
 29 30  1  0
 30 31  2  0
 30 32  1  0
 32 33  1  0
 32 34  1  0
 34 35  1  0
 35 36  2  0
 35 37  1  0
 37 38  1  0
 37 39  1  0
 39 40  1  0
 40 41  2  0
 40 42  1  0
 42 43  1  0
 42 44  1  0
 44 45  1  0
 45 46  2  0
 18 47  1  0
 47 48  2  0
 47 49  1  0
 49 50  1  0
 50 51  1  0
 50 52  1  0
 52 53  2  0
 52 54  1  0
 54 55  1  0
 55 56  1  0
 55 57  1  0
 57 58  2  0
 57 59  1  0
 59 60  1  0
 60 61  1  0
 60 62  1  0
 62 63  2  0
 62 64  1  0
 64 65  1  0
 65 66  1  0
 65 67  1  0
 67 68  2  0
 67 69  1  0
 69 70  1  0
 70 71  1  0
 70 72  1  0
 72 73  2  0
 72 74  1  0
 74 75  1  0
 75 76  1  0
 76 77  1  0
 76 78  2  0
 75 79  1  0
 79 80  1  0
 80 81  1  0
 45  5  1  0
 14  9  1  0
 81 11  1  0
  1 82  1  0
  1 83  1  0
  1 84  1  0
  4 85  1  0
  5 86  1  6
  6 87  1  0
  6 88  1  0
  8 89  1  0
  8 90  1  0
 10 91  1  0
 12 92  1  0
 14 93  1  0
 15 94  1  0
 15 95  1  0
 17 96  1  0
 17 97  1  0
 18 98  1  1
 19 99  1  0
 22100  1  6
 23101  1  0
 23102  1  0
 23103  1  0
 24104  1  0
 27105  1  6
 28106  1  0
 28107  1  0
 28108  1  0
 29109  1  0
 32110  1  1
 33111  1  0
 33112  1  0
 33113  1  0
 34114  1  0
 37115  1  6
 38116  1  0
 38117  1  0
 38118  1  0
 39119  1  0
 42120  1  6
 43121  1  0
 43122  1  0
 43123  1  0
 44124  1  0
 49125  1  0
 50126  1  1
 51127  1  0
 51128  1  0
 51129  1  0
 54130  1  0
 55131  1  1
 56132  1  0
 56133  1  0
 56134  1  0
 59135  1  0
 60136  1  6
 61137  1  0
 61138  1  0
 61139  1  0
 64140  1  0
 65141  1  6
 66142  1  0
 66143  1  0
 66144  1  0
 69145  1  0
 70146  1  6
 71147  1  0
 71148  1  0
 71149  1  0
 74150  1  0
 75151  1  1
 77152  1  0
 77153  1  0
 79154  1  0
 79155  1  0
 81156  1  0
 81157  1  0
M  END
