
     RDKit          3D

147149  0  0  0  0  0  0  0  0999 V2000
   -5.5241    6.9855   -2.0577 C   0  0  0  0  0  0  0  0  0  0  0  0
   -4.6980    5.8582   -2.5949 C   0  0  0  0  0  0  0  0  0  0  0  0
   -4.2299    5.9570   -3.7625 O   0  0  0  0  0  0  0  0  0  0  0  0
   -4.4505    4.6515   -1.8488 N   0  0  0  0  0  0  0  0  0  0  0  0
   -4.4877    4.5103   -0.3856 C   0  0  1  0  0  0  0  0  0  0  0  0
   -3.4946    5.4801    0.3099 C   0  0  0  0  0  0  0  0  0  0  0  0
   -1.9213    4.6569    0.7620 S   0  0  0  0  0  0  0  0  0  0  0  0
   -1.2696    4.5016   -0.9392 C   0  0  0  0  0  0  0  0  0  0  0  0
    0.0901    3.8627   -0.9148 C   0  0  0  0  0  0  0  0  0  0  0  0
    0.2407    2.5667   -0.4038 C   0  0  0  0  0  0  0  0  0  0  0  0
    1.4943    1.9419   -0.4023 C   0  0  0  0  0  0  0  0  0  0  0  0
    2.6041    2.6146   -0.9310 C   0  0  0  0  0  0  0  0  0  0  0  0
    2.4703    3.9121   -1.4435 C   0  0  0  0  0  0  0  0  0  0  0  0
    1.2104    4.5348   -1.4287 C   0  0  0  0  0  0  0  0  0  0  0  0
    3.6664    4.6502   -1.9810 C   0  0  0  0  0  0  0  0  0  0  0  0
    4.2166    5.9268   -0.7884 S   0  0  0  0  0  0  0  0  0  0  0  0
    5.3384    4.8586    0.1931 C   0  0  0  0  0  0  0  0  0  0  0  0
    6.7388    4.7620   -0.4470 C   0  0  1  0  0  0  0  0  0  0  0  0
    7.3927    6.1217   -0.5222 C   0  0  0  0  0  0  0  0  0  0  0  0
    7.8792    6.6266   -1.7672 N   0  0  0  0  0  0  0  0  0  0  0  0
    7.5347    6.8117    0.5247 O   0  0  0  0  0  0  0  0  0  0  0  0
    7.5924    3.8413    0.3198 N   0  0  0  0  0  0  0  0  0  0  0  0
    7.3510    2.4205    0.3613 C   0  0  0  0  0  0  0  0  0  0  0  0
    6.4755    1.9197   -0.3961 O   0  0  0  0  0  0  0  0  0  0  0  0
    8.1372    1.4882    1.2624 C   0  0  1  0  0  0  0  0  0  0  0  0
    9.0561    2.2081    2.2583 C   0  0  0  0  0  0  0  0  0  0  0  0
    7.2023    0.6441    2.0162 N   0  0  0  0  0  0  0  0  0  0  0  0
    7.2933   -0.7876    2.1488 C   0  0  0  0  0  0  0  0  0  0  0  0
    6.6683   -1.3459    3.0912 O   0  0  0  0  0  0  0  0  0  0  0  0
    8.1260   -1.6405    1.2197 C   0  0  1  0  0  0  0  0  0  0  0  0
    9.5644   -1.7252    1.7445 C   0  0  0  0  0  0  0  0  0  0  0  0
    7.5577   -2.9900    1.1155 N   0  0  0  0  0  0  0  0  0  0  0  0
    6.3358   -3.3224    0.4317 C   0  0  0  0  0  0  0  0  0  0  0  0
    5.9964   -4.5346    0.3697 O   0  0  0  0  0  0  0  0  0  0  0  0
    5.4143   -2.2730   -0.1527 C   0  0  1  0  0  0  0  0  0  0  0  0
    4.9070   -2.6770   -1.5410 C   0  0  0  0  0  0  0  0  0  0  0  0
    4.3069   -1.9797    0.7657 N   0  0  0  0  0  0  0  0  0  0  0  0
    3.4708   -2.9841    1.3577 C   0  0  0  0  0  0  0  0  0  0  0  0
    3.6385   -3.2883    2.5676 O   0  0  0  0  0  0  0  0  0  0  0  0
    2.3478   -3.6195    0.5782 C   0  0  1  0  0  0  0  0  0  0  0  0
    2.5547   -5.1355    0.4847 C   0  0  0  0  0  0  0  0  0  0  0  0
    1.0652   -3.3462    1.2333 N   0  0  0  0  0  0  0  0  0  0  0  0
    0.0173   -2.4928    0.7330 C   0  0  0  0  0  0  0  0  0  0  0  0
   -0.6545   -1.8273    1.5689 O   0  0  0  0  0  0  0  0  0  0  0  0
   -0.4060   -2.4093   -0.7244 C   0  0  1  0  0  0  0  0  0  0  0  0
   -0.0696   -1.0393   -1.3461 C   0  0  0  0  0  0  0  0  0  0  0  0
    1.7157   -0.6380   -1.2783 S   0  0  0  0  0  0  0  0  0  0  0  0
    1.6441    0.5446    0.1206 C   0  0  0  0  0  0  0  0  0  0  0  0
    0.1101   -3.5126   -1.5455 N   0  0  0  0  0  0  0  0  0  0  0  0
   -0.4731   -4.8279   -1.6561 C   0  0  0  0  0  0  0  0  0  0  0  0
    0.1902   -5.7302   -2.2349 O   0  0  0  0  0  0  0  0  0  0  0  0
   -1.8685   -5.1727   -1.1787 C   0  0  1  0  0  0  0  0  0  0  0  0
   -1.9651   -5.1723    0.3561 C   0  0  0  0  0  0  0  0  0  0  0  0
   -2.8540   -4.2901   -1.8158 N   0  0  0  0  0  0  0  0  0  0  0  0
   -4.1568   -4.0350   -1.2781 C   0  0  0  0  0  0  0  0  0  0  0  0
   -4.3484   -2.9708   -0.6373 O   0  0  0  0  0  0  0  0  0  0  0  0
   -5.2952   -5.0063   -1.4564 C   0  0  1  0  0  0  0  0  0  0  0  0
   -5.0882   -5.9296   -2.6665 C   0  0  0  0  0  0  0  0  0  0  0  0
   -5.4654   -5.8086   -0.2395 N   0  0  0  0  0  0  0  0  0  0  0  0
   -6.0985   -5.3637    0.9766 C   0  0  0  0  0  0  0  0  0  0  0  0
   -5.9363   -6.0536    2.0210 O   0  0  0  0  0  0  0  0  0  0  0  0
   -6.9504   -4.1091    1.0664 C   0  0  1  0  0  0  0  0  0  0  0  0
   -8.2424   -4.4007    1.8409 C   0  0  0  0  0  0  0  0  0  0  0  0
   -6.1988   -3.0429    1.7374 N   0  0  0  0  0  0  0  0  0  0  0  0
   -6.3056   -1.6342    1.4501 C   0  0  0  0  0  0  0  0  0  0  0  0
   -5.3776   -0.8774    1.8454 O   0  0  0  0  0  0  0  0  0  0  0  0
   -7.5138   -1.0193    0.7678 C   0  0  1  0  0  0  0  0  0  0  0  0
   -8.4793   -0.4216    1.7944 C   0  0  0  0  0  0  0  0  0  0  0  0
   -7.1146   -0.0411   -0.2614 N   0  0  0  0  0  0  0  0  0  0  0  0
   -6.3050    1.1284   -0.0378 C   0  0  0  0  0  0  0  0  0  0  0  0
   -5.1926    1.2119   -0.6241 O   0  0  0  0  0  0  0  0  0  0  0  0
   -6.7945    2.2973    0.7838 C   0  0  1  0  0  0  0  0  0  0  0  0
   -5.9665    2.4656    2.0694 C   0  0  0  0  0  0  0  0  0  0  0  0
   -6.8203    3.5216   -0.0358 N   0  0  0  0  0  0  0  0  0  0  0  0
   -5.9096    4.6193    0.1172 C   0  0  0  0  0  0  0  0  0  0  0  0
   -6.3342    5.7006    0.6093 O   0  0  0  0  0  0  0  0  0  0  0  0
   -6.5557    6.6290   -1.8598 H   0  0  0  0  0  0  0  0  0  0  0  0
   -5.5818    7.8099   -2.7976 H   0  0  0  0  0  0  0  0  0  0  0  0
   -5.0879    7.3995   -1.1249 H   0  0  0  0  0  0  0  0  0  0  0  0
   -4.1594    3.8115   -2.4020 H   0  0  0  0  0  0  0  0  0  0  0  0
   -4.1554    3.4810   -0.1436 H   0  0  0  0  0  0  0  0  0  0  0  0
   -3.2604    6.3622   -0.3160 H   0  0  0  0  0  0  0  0  0  0  0  0
   -3.9232    5.8525    1.2663 H   0  0  0  0  0  0  0  0  0  0  0  0
   -1.9390    3.8529   -1.5380 H   0  0  0  0  0  0  0  0  0  0  0  0
   -1.2371    5.5047   -1.4160 H   0  0  0  0  0  0  0  0  0  0  0  0
   -0.6239    2.0474   -0.0077 H   0  0  0  0  0  0  0  0  0  0  0  0
    3.5680    2.1230   -0.9454 H   0  0  0  0  0  0  0  0  0  0  0  0
    1.1038    5.5420   -1.8195 H   0  0  0  0  0  0  0  0  0  0  0  0
    4.4892    3.9507   -2.2350 H   0  0  0  0  0  0  0  0  0  0  0  0
    3.3793    5.1714   -2.9217 H   0  0  0  0  0  0  0  0  0  0  0  0
    4.8905    3.8498    0.3130 H   0  0  0  0  0  0  0  0  0  0  0  0
    5.4233    5.2967    1.2130 H   0  0  0  0  0  0  0  0  0  0  0  0
    6.6383    4.3611   -1.4777 H   0  0  0  0  0  0  0  0  0  0  0  0
    8.4058    7.5239   -1.7933 H   0  0  0  0  0  0  0  0  0  0  0  0
    7.8530    6.0392   -2.6316 H   0  0  0  0  0  0  0  0  0  0  0  0
    8.4185    4.2399    0.8219 H   0  0  0  0  0  0  0  0  0  0  0  0
    8.7860    0.8766    0.6071 H   0  0  0  0  0  0  0  0  0  0  0  0
    9.8807    2.7184    1.7229 H   0  0  0  0  0  0  0  0  0  0  0  0
    9.5158    1.4689    2.9487 H   0  0  0  0  0  0  0  0  0  0  0  0
    8.4830    2.9383    2.8643 H   0  0  0  0  0  0  0  0  0  0  0  0
    6.4994    1.1316    2.6197 H   0  0  0  0  0  0  0  0  0  0  0  0
    8.1622   -1.1967    0.2016 H   0  0  0  0  0  0  0  0  0  0  0  0
   10.1721   -2.3653    1.0688 H   0  0  0  0  0  0  0  0  0  0  0  0
   10.0395   -0.7230    1.7863 H   0  0  0  0  0  0  0  0  0  0  0  0
    9.5798   -2.1703    2.7623 H   0  0  0  0  0  0  0  0  0  0  0  0
    8.0792   -3.7859    1.5488 H   0  0  0  0  0  0  0  0  0  0  0  0
    5.9778   -1.3308   -0.3125 H   0  0  0  0  0  0  0  0  0  0  0  0
    4.3716   -3.6446   -1.5197 H   0  0  0  0  0  0  0  0  0  0  0  0
    5.7675   -2.7716   -2.2398 H   0  0  0  0  0  0  0  0  0  0  0  0
    4.2321   -1.8935   -1.9424 H   0  0  0  0  0  0  0  0  0  0  0  0
    4.3407   -1.0575    1.2586 H   0  0  0  0  0  0  0  0  0  0  0  0
    2.3558   -3.2023   -0.4413 H   0  0  0  0  0  0  0  0  0  0  0  0
    3.4980   -5.3722   -0.0490 H   0  0  0  0  0  0  0  0  0  0  0  0
    1.7195   -5.5978   -0.0729 H   0  0  0  0  0  0  0  0  0  0  0  0
    2.5849   -5.5904    1.4952 H   0  0  0  0  0  0  0  0  0  0  0  0
    0.9693   -3.6585    2.2267 H   0  0  0  0  0  0  0  0  0  0  0  0
   -1.5139   -2.4516   -0.7417 H   0  0  0  0  0  0  0  0  0  0  0  0
   -0.6813   -0.2476   -0.8679 H   0  0  0  0  0  0  0  0  0  0  0  0
   -0.3694   -1.0544   -2.4175 H   0  0  0  0  0  0  0  0  0  0  0  0
    0.8289    0.2910    0.8335 H   0  0  0  0  0  0  0  0  0  0  0  0
    2.5910    0.4708    0.6908 H   0  0  0  0  0  0  0  0  0  0  0  0
    0.9365   -3.3294   -2.1569 H   0  0  0  0  0  0  0  0  0  0  0  0
   -2.0853   -6.2102   -1.5109 H   0  0  0  0  0  0  0  0  0  0  0  0
   -2.0991   -4.1507    0.7598 H   0  0  0  0  0  0  0  0  0  0  0  0
   -1.0573   -5.6311    0.8023 H   0  0  0  0  0  0  0  0  0  0  0  0
   -2.8398   -5.7775    0.6760 H   0  0  0  0  0  0  0  0  0  0  0  0
   -2.6782   -3.9691   -2.7976 H   0  0  0  0  0  0  0  0  0  0  0  0
   -6.2165   -4.4407   -1.6773 H   0  0  0  0  0  0  0  0  0  0  0  0
   -5.9757   -6.5871   -2.7890 H   0  0  0  0  0  0  0  0  0  0  0  0
   -4.9684   -5.3277   -3.5917 H   0  0  0  0  0  0  0  0  0  0  0  0
   -4.1942   -6.5757   -2.5335 H   0  0  0  0  0  0  0  0  0  0  0  0
   -4.9680   -6.7289   -0.1921 H   0  0  0  0  0  0  0  0  0  0  0  0
   -7.2437   -3.7917    0.0543 H   0  0  0  0  0  0  0  0  0  0  0  0
   -8.0177   -4.6340    2.9007 H   0  0  0  0  0  0  0  0  0  0  0  0
   -8.7683   -5.2668    1.3852 H   0  0  0  0  0  0  0  0  0  0  0  0
   -8.9216   -3.5273    1.7990 H   0  0  0  0  0  0  0  0  0  0  0  0
   -5.4826   -3.3247    2.4474 H   0  0  0  0  0  0  0  0  0  0  0  0
   -8.0878   -1.8068    0.2458 H   0  0  0  0  0  0  0  0  0  0  0  0
   -8.9215   -1.2320    2.4128 H   0  0  0  0  0  0  0  0  0  0  0  0
   -9.3061    0.1067    1.2789 H   0  0  0  0  0  0  0  0  0  0  0  0
   -7.9655    0.2729    2.4869 H   0  0  0  0  0  0  0  0  0  0  0  0
   -7.1544   -0.3802   -1.2493 H   0  0  0  0  0  0  0  0  0  0  0  0
   -7.8400    2.0986    1.0959 H   0  0  0  0  0  0  0  0  0  0  0  0
   -6.0537    1.5651    2.7128 H   0  0  0  0  0  0  0  0  0  0  0  0
   -4.8925    2.6244    1.8504 H   0  0  0  0  0  0  0  0  0  0  0  0
   -6.3485    3.3333    2.6482 H   0  0  0  0  0  0  0  0  0  0  0  0
   -7.7215    3.7343   -0.5225 H   0  0  0  0  0  0  0  0  0  0  0  0
  1  2  1  0
  2  3  2  0
  2  4  1  0
  4  5  1  0
  5  6  1  0
  6  7  1  0
  7  8  1  0
  8  9  1  0
  9 10  1  0
 10 11  2  0
 11 12  1  0
 12 13  2  0
 13 14  1  0
 13 15  1  0
 15 16  1  0
 16 17  1  0
 17 18  1  0
 18 19  1  0
 19 20  1  0
 19 21  2  0
 18 22  1  0
 22 23  1  0
 23 24  2  0
 23 25  1  0
 25 26  1  0
 25 27  1  0
 27 28  1  0
 28 29  2  0
 28 30  1  0
 30 31  1  0
 30 32  1  0
 32 33  1  0
 33 34  2  0
 33 35  1  0
 35 36  1  0
 35 37  1  0
 37 38  1  0
 38 39  2  0
 38 40  1  0
 40 41  1  0
 40 42  1  0
 42 43  1  0
 43 44  2  0
 43 45  1  0
 45 46  1  0
 46 47  1  0
 47 48  1  0
 45 49  1  0
 49 50  1  0
 50 51  2  0
 50 52  1  0
 52 53  1  0
 52 54  1  0
 54 55  1  0
 55 56  2  0
 55 57  1  0
 57 58  1  0
 57 59  1  0
 59 60  1  0
 60 61  2  0
 60 62  1  0
 62 63  1  0
 62 64  1  0
 64 65  1  0
 65 66  2  0
 65 67  1  0
 67 68  1  0
 67 69  1  0
 69 70  1  0
 70 71  2  0
 70 72  1  0
 72 73  1  0
 72 74  1  0
 74 75  1  0
 75 76  2  0
 75  5  1  0
 14  9  2  0
 48 11  1  0
  1 77  1  0
  1 78  1  0
  1 79  1  0
  4 80  1  0
  5 81  1  6
  6 82  1  0
  6 83  1  0
  8 84  1  0
  8 85  1  0
 10 86  1  0
 12 87  1  0
 14 88  1  0
 15 89  1  0
 15 90  1  0
 17 91  1  0
 17 92  1  0
 18 93  1  6
 20 94  1  0
 20 95  1  0
 22 96  1  0
 25 97  1  6
 26 98  1  0
 26 99  1  0
 26100  1  0
 27101  1  0
 30102  1  6
 31103  1  0
 31104  1  0
 31105  1  0
 32106  1  0
 35107  1  6
 36108  1  0
 36109  1  0
 36110  1  0
 37111  1  0
 40112  1  6
 41113  1  0
 41114  1  0
 41115  1  0
 42116  1  0
 45117  1  1
 46118  1  0
 46119  1  0
 48120  1  0
 48121  1  0
 49122  1  0
 52123  1  6
 53124  1  0
 53125  1  0
 53126  1  0
 54127  1  0
 57128  1  6
 58129  1  0
 58130  1  0
 58131  1  0
 59132  1  0
 62133  1  6
 63134  1  0
 63135  1  0
 63136  1  0
 64137  1  0
 67138  1  6
 68139  1  0
 68140  1  0
 68141  1  0
 69142  1  0
 72143  1  1
 73144  1  0
 73145  1  0
 73146  1  0
 74147  1  0
M  END
