
     RDKit          3D

167169  0  0  0  0  0  0  0  0999 V2000
   -3.8245    7.6875   -0.1822 C   0  0  0  0  0  0  0  0  0  0  0  0
   -4.3492    6.8081   -1.2762 C   0  0  0  0  0  0  0  0  0  0  0  0
   -3.9203    6.9744   -2.4463 O   0  0  0  0  0  0  0  0  0  0  0  0
   -5.3362    5.7886   -1.0341 N   0  0  0  0  0  0  0  0  0  0  0  0
   -5.8452    5.4260    0.2939 C   0  0  2  0  0  0  0  0  0  0  0  0
   -5.0290    4.2471    0.8692 C   0  0  0  0  0  0  0  0  0  0  0  0
   -5.2411    2.6896   -0.0891 S   0  0  0  0  0  0  0  0  0  0  0  0
   -3.6897    2.7593   -1.0473 C   0  0  0  0  0  0  0  0  0  0  0  0
   -2.4808    2.5940   -0.1685 C   0  0  0  0  0  0  0  0  0  0  0  0
   -2.2954    1.4190    0.5823 C   0  0  0  0  0  0  0  0  0  0  0  0
   -1.1522    1.2631    1.3856 C   0  0  0  0  0  0  0  0  0  0  0  0
   -0.2186    2.3035    1.4647 C   0  0  0  0  0  0  0  0  0  0  0  0
   -0.3956    3.4814    0.7251 C   0  0  0  0  0  0  0  0  0  0  0  0
   -1.5222    3.6161   -0.0988 C   0  0  0  0  0  0  0  0  0  0  0  0
    0.6308    4.5763    0.7981 C   0  0  0  0  0  0  0  0  0  0  0  0
    1.6683    4.5389   -0.7038 S   0  0  0  0  0  0  0  0  0  0  0  0
    3.2174    5.0134    0.1459 C   0  0  0  0  0  0  0  0  0  0  0  0
    4.3461    5.3006   -0.8571 C   0  0  1  0  0  0  0  0  0  0  0  0
    4.0348    6.5241   -1.6883 C   0  0  0  0  0  0  0  0  0  0  0  0
    3.8713    7.8092   -1.0782 N   0  0  0  0  0  0  0  0  0  0  0  0
    3.9285    6.4186   -2.9386 O   0  0  0  0  0  0  0  0  0  0  0  0
    5.6256    5.4576   -0.1495 N   0  0  0  0  0  0  0  0  0  0  0  0
    6.8740    5.6118   -0.8430 C   0  0  0  0  0  0  0  0  0  0  0  0
    6.8980    6.0970   -2.0093 O   0  0  0  0  0  0  0  0  0  0  0  0
    8.1711    5.2358   -0.1818 C   0  0  1  0  0  0  0  0  0  0  0  0
    8.5133    6.2314    0.9291 C   0  0  0  0  0  0  0  0  0  0  0  0
    8.1109    3.8679    0.3423 N   0  0  0  0  0  0  0  0  0  0  0  0
    8.0314    2.7332   -0.5331 C   0  0  0  0  0  0  0  0  0  0  0  0
    7.2733    2.7709   -1.5424 O   0  0  0  0  0  0  0  0  0  0  0  0
    8.9021    1.5210   -0.3133 C   0  0  1  0  0  0  0  0  0  0  0  0
   10.3763    1.9442   -0.3027 C   0  0  0  0  0  0  0  0  0  0  0  0
    8.5578    0.8332    0.9393 N   0  0  0  0  0  0  0  0  0  0  0  0
    8.9539   -0.5149    1.2566 C   0  0  0  0  0  0  0  0  0  0  0  0
    8.8322   -0.9078    2.4491 O   0  0  0  0  0  0  0  0  0  0  0  0
    9.4336   -1.4920    0.1984 C   0  0  1  0  0  0  0  0  0  0  0  0
   10.4483   -2.5074    0.7537 C   0  0  0  0  0  0  0  0  0  0  0  0
    8.3009   -2.1766   -0.4364 N   0  0  0  0  0  0  0  0  0  0  0  0
    7.5263   -3.1940    0.2251 C   0  0  0  0  0  0  0  0  0  0  0  0
    7.2695   -3.0811    1.4529 O   0  0  0  0  0  0  0  0  0  0  0  0
    7.0207   -4.4252   -0.4970 C   0  0  1  0  0  0  0  0  0  0  0  0
    7.3872   -4.4625   -1.9865 C   0  0  0  0  0  0  0  0  0  0  0  0
    7.5703   -5.6232    0.1500 N   0  0  0  0  0  0  0  0  0  0  0  0
    6.8240   -6.6909    0.7698 C   0  0  0  0  0  0  0  0  0  0  0  0
    7.4665   -7.6313    1.3150 O   0  0  0  0  0  0  0  0  0  0  0  0
    5.3120   -6.7444    0.8179 C   0  0  1  0  0  0  0  0  0  0  0  0
    4.7716   -5.7510    1.8603 C   0  0  0  0  0  0  0  0  0  0  0  0
    4.7380   -6.5469   -0.5187 N   0  0  0  0  0  0  0  0  0  0  0  0
    3.3413   -6.3021   -0.7143 C   0  0  0  0  0  0  0  0  0  0  0  0
    2.5498   -7.2749   -0.8501 O   0  0  0  0  0  0  0  0  0  0  0  0
    2.8619   -4.8923   -0.9118 C   0  0  1  0  0  0  0  0  0  0  0  0
    3.0462   -4.4714   -2.3722 C   0  0  0  0  0  0  0  0  0  0  0  0
    1.4475   -4.7592   -0.5320 N   0  0  0  0  0  0  0  0  0  0  0  0
    1.0348   -3.9092    0.5553 C   0  0  0  0  0  0  0  0  0  0  0  0
    1.8046   -3.7495    1.5418 O   0  0  0  0  0  0  0  0  0  0  0  0
   -0.2881   -3.1732    0.5372 C   0  0  1  0  0  0  0  0  0  0  0  0
   -0.0674   -1.6954    0.1751 C   0  0  0  0  0  0  0  0  0  0  0  0
    0.6499   -0.7795    1.5933 S   0  0  0  0  0  0  0  0  0  0  0  0
   -0.9165   -0.0075    2.1541 C   0  0  0  0  0  0  0  0  0  0  0  0
   -1.2212   -3.7702   -0.4234 N   0  0  0  0  0  0  0  0  0  0  0  0
   -2.4285   -4.4847   -0.1018 C   0  0  0  0  0  0  0  0  0  0  0  0
   -3.0874   -4.9946   -1.0491 O   0  0  0  0  0  0  0  0  0  0  0  0
   -2.9161   -4.6650    1.3199 C   0  0  1  0  0  0  0  0  0  0  0  0
   -3.4615   -3.3688    1.9504 C   0  0  0  0  0  0  0  0  0  0  0  0
   -3.8965   -5.7637    1.4201 N   0  0  0  0  0  0  0  0  0  0  0  0
   -5.2576   -5.7938    0.9409 C   0  0  0  0  0  0  0  0  0  0  0  0
   -5.9512   -6.8148    1.1817 O   0  0  0  0  0  0  0  0  0  0  0  0
   -5.9116   -4.6508    0.1957 C   0  0  1  0  0  0  0  0  0  0  0  0
   -6.5363   -5.1626   -1.1163 C   0  0  0  0  0  0  0  0  0  0  0  0
   -6.8808   -3.9981    1.0868 N   0  0  0  0  0  0  0  0  0  0  0  0
   -8.2798   -3.8872    0.8296 C   0  0  0  0  0  0  0  0  0  0  0  0
   -9.0788   -4.6523    1.4362 O   0  0  0  0  0  0  0  0  0  0  0  0
   -8.8011   -2.7618   -0.0267 C   0  0  1  0  0  0  0  0  0  0  0  0
  -10.0630   -3.1915   -0.7896 C   0  0  0  0  0  0  0  0  0  0  0  0
   -9.0559   -1.5770    0.8045 N   0  0  0  0  0  0  0  0  0  0  0  0
   -9.5945   -0.3655    0.2628 C   0  0  0  0  0  0  0  0  0  0  0  0
  -10.8234   -0.1253    0.4186 O   0  0  0  0  0  0  0  0  0  0  0  0
   -8.7038    0.6937   -0.3559 C   0  0  1  0  0  0  0  0  0  0  0  0
   -7.6531    0.0951   -1.2911 C   0  0  0  0  0  0  0  0  0  0  0  0
   -9.5223    1.6473   -1.1061 N   0  0  0  0  0  0  0  0  0  0  0  0
   -9.4839    3.0761   -0.9266 C   0  0  0  0  0  0  0  0  0  0  0  0
   -9.5177    3.8074   -1.9575 O   0  0  0  0  0  0  0  0  0  0  0  0
   -9.4091    3.7567    0.4226 C   0  0  1  0  0  0  0  0  0  0  0  0
  -10.0988    2.9831    1.5578 C   0  0  0  0  0  0  0  0  0  0  0  0
   -8.0156    4.0678    0.7551 N   0  0  0  0  0  0  0  0  0  0  0  0
   -7.3469    5.2229    0.2163 C   0  0  0  0  0  0  0  0  0  0  0  0
   -8.0306    6.1279   -0.3346 O   0  0  0  0  0  0  0  0  0  0  0  0
   -4.6568    8.2787    0.2560 H   0  0  0  0  0  0  0  0  0  0  0  0
   -3.3526    7.0647    0.6115 H   0  0  0  0  0  0  0  0  0  0  0  0
   -3.0643    8.3949   -0.5742 H   0  0  0  0  0  0  0  0  0  0  0  0
   -5.6351    5.2061   -1.8469 H   0  0  0  0  0  0  0  0  0  0  0  0
   -5.7038    6.2767    0.9898 H   0  0  0  0  0  0  0  0  0  0  0  0
   -5.3417    4.0560    1.9176 H   0  0  0  0  0  0  0  0  0  0  0  0
   -3.9642    4.5405    0.9165 H   0  0  0  0  0  0  0  0  0  0  0  0
   -3.6485    3.7087   -1.6214 H   0  0  0  0  0  0  0  0  0  0  0  0
   -3.7065    1.9297   -1.7866 H   0  0  0  0  0  0  0  0  0  0  0  0
   -3.0416    0.6318    0.5358 H   0  0  0  0  0  0  0  0  0  0  0  0
    0.6500    2.1934    2.1020 H   0  0  0  0  0  0  0  0  0  0  0  0
   -1.6517    4.5235   -0.6740 H   0  0  0  0  0  0  0  0  0  0  0  0
    1.2524    4.4351    1.7063 H   0  0  0  0  0  0  0  0  0  0  0  0
    0.1275    5.5606    0.8800 H   0  0  0  0  0  0  0  0  0  0  0  0
    3.5187    4.1659    0.7991 H   0  0  0  0  0  0  0  0  0  0  0  0
    3.0451    5.8988    0.7902 H   0  0  0  0  0  0  0  0  0  0  0  0
    4.4373    4.4188   -1.5293 H   0  0  0  0  0  0  0  0  0  0  0  0
    3.6729    8.6468   -1.6663 H   0  0  0  0  0  0  0  0  0  0  0  0
    3.9469    7.9214   -0.0462 H   0  0  0  0  0  0  0  0  0  0  0  0
    5.6721    5.2403    0.8714 H   0  0  0  0  0  0  0  0  0  0  0  0
    8.9886    5.2769   -0.9323 H   0  0  0  0  0  0  0  0  0  0  0  0
    8.5951    7.2569    0.5082 H   0  0  0  0  0  0  0  0  0  0  0  0
    9.4901    5.9590    1.3873 H   0  0  0  0  0  0  0  0  0  0  0  0
    7.7358    6.2266    1.7259 H   0  0  0  0  0  0  0  0  0  0  0  0
    8.2805    3.6970    1.3650 H   0  0  0  0  0  0  0  0  0  0  0  0
    8.7338    0.8364   -1.1686 H   0  0  0  0  0  0  0  0  0  0  0  0
   11.0432    1.0618   -0.1955 H   0  0  0  0  0  0  0  0  0  0  0  0
   10.5831    2.6390    0.5445 H   0  0  0  0  0  0  0  0  0  0  0  0
   10.6264    2.4625   -1.2588 H   0  0  0  0  0  0  0  0  0  0  0  0
    8.1249    1.3919    1.7108 H   0  0  0  0  0  0  0  0  0  0  0  0
    9.9792   -0.9357   -0.5913 H   0  0  0  0  0  0  0  0  0  0  0  0
   10.0029   -3.1183    1.5634 H   0  0  0  0  0  0  0  0  0  0  0  0
   10.7778   -3.1842   -0.0618 H   0  0  0  0  0  0  0  0  0  0  0  0
   11.3377   -1.9765    1.1513 H   0  0  0  0  0  0  0  0  0  0  0  0
    8.1715   -2.0262   -1.4592 H   0  0  0  0  0  0  0  0  0  0  0  0
    5.9213   -4.4003   -0.4400 H   0  0  0  0  0  0  0  0  0  0  0  0
    7.0366   -5.4129   -2.4371 H   0  0  0  0  0  0  0  0  0  0  0  0
    8.4898   -4.3949   -2.1185 H   0  0  0  0  0  0  0  0  0  0  0  0
    6.8943   -3.6266   -2.5259 H   0  0  0  0  0  0  0  0  0  0  0  0
    8.6123   -5.7102    0.1699 H   0  0  0  0  0  0  0  0  0  0  0  0
    5.0172   -7.7634    1.1585 H   0  0  0  0  0  0  0  0  0  0  0  0
    5.2297   -5.9673    2.8522 H   0  0  0  0  0  0  0  0  0  0  0  0
    5.0003   -4.7000    1.5929 H   0  0  0  0  0  0  0  0  0  0  0  0
    3.6710   -5.8679    1.9623 H   0  0  0  0  0  0  0  0  0  0  0  0
    5.2405   -6.9948   -1.3166 H   0  0  0  0  0  0  0  0  0  0  0  0
    3.4873   -4.2153   -0.2879 H   0  0  0  0  0  0  0  0  0  0  0  0
    2.7153   -3.4171   -2.5041 H   0  0  0  0  0  0  0  0  0  0  0  0
    4.1180   -4.5459   -2.6562 H   0  0  0  0  0  0  0  0  0  0  0  0
    2.4467   -5.1232   -3.0458 H   0  0  0  0  0  0  0  0  0  0  0  0
    0.7319   -5.1858   -1.1601 H   0  0  0  0  0  0  0  0  0  0  0  0
   -0.6950   -3.2183    1.5609 H   0  0  0  0  0  0  0  0  0  0  0  0
    0.6286   -1.6210   -0.6903 H   0  0  0  0  0  0  0  0  0  0  0  0
   -1.0212   -1.2336   -0.1405 H   0  0  0  0  0  0  0  0  0  0  0  0
   -0.8248    0.2382    3.2329 H   0  0  0  0  0  0  0  0  0  0  0  0
   -1.7567   -0.7240    2.0480 H   0  0  0  0  0  0  0  0  0  0  0  0
   -0.9972   -3.6579   -1.4392 H   0  0  0  0  0  0  0  0  0  0  0  0
   -2.0377   -4.9795    1.9286 H   0  0  0  0  0  0  0  0  0  0  0  0
   -3.8385   -2.6513    1.1926 H   0  0  0  0  0  0  0  0  0  0  0  0
   -2.6659   -2.8556    2.5298 H   0  0  0  0  0  0  0  0  0  0  0  0
   -4.2716   -3.5935    2.6776 H   0  0  0  0  0  0  0  0  0  0  0  0
   -3.5625   -6.6244    1.9122 H   0  0  0  0  0  0  0  0  0  0  0  0
   -5.1601   -3.8906   -0.1019 H   0  0  0  0  0  0  0  0  0  0  0  0
   -5.7758   -5.7066   -1.7158 H   0  0  0  0  0  0  0  0  0  0  0  0
   -7.3871   -5.8512   -0.9096 H   0  0  0  0  0  0  0  0  0  0  0  0
   -6.8978   -4.3125   -1.7331 H   0  0  0  0  0  0  0  0  0  0  0  0
   -6.5552   -3.6697    2.0225 H   0  0  0  0  0  0  0  0  0  0  0  0
   -8.0203   -2.5258   -0.7730 H   0  0  0  0  0  0  0  0  0  0  0  0
  -10.4197   -2.3701   -1.4456 H   0  0  0  0  0  0  0  0  0  0  0  0
   -9.8305   -4.0661   -1.4340 H   0  0  0  0  0  0  0  0  0  0  0  0
  -10.8775   -3.4621   -0.0831 H   0  0  0  0  0  0  0  0  0  0  0  0
   -9.0938   -1.6810    1.8431 H   0  0  0  0  0  0  0  0  0  0  0  0
   -8.1445    1.2095    0.4538 H   0  0  0  0  0  0  0  0  0  0  0  0
   -7.0961    0.9071   -1.8077 H   0  0  0  0  0  0  0  0  0  0  0  0
   -6.9157   -0.4981   -0.7114 H   0  0  0  0  0  0  0  0  0  0  0  0
   -8.1370   -0.5421   -2.0628 H   0  0  0  0  0  0  0  0  0  0  0  0
   -9.9999    1.2937   -1.9663 H   0  0  0  0  0  0  0  0  0  0  0  0
   -9.9764    4.7098    0.3391 H   0  0  0  0  0  0  0  0  0  0  0  0
  -11.0697    2.5588    1.2189 H   0  0  0  0  0  0  0  0  0  0  0  0
   -9.4596    2.1643    1.9489 H   0  0  0  0  0  0  0  0  0  0  0  0
  -10.2980    3.6721    2.4079 H   0  0  0  0  0  0  0  0  0  0  0  0
   -7.5043    3.4178    1.3919 H   0  0  0  0  0  0  0  0  0  0  0  0
  1  2  1  0
  2  3  2  0
  2  4  1  0
  4  5  1  0
  5  6  1  0
  6  7  1  0
  7  8  1  0
  8  9  1  0
  9 10  1  0
 10 11  2  0
 11 12  1  0
 12 13  2  0
 13 14  1  0
 13 15  1  0
 15 16  1  0
 16 17  1  0
 17 18  1  0
 18 19  1  0
 19 20  1  0
 19 21  2  0
 18 22  1  0
 22 23  1  0
 23 24  2  0
 23 25  1  0
 25 26  1  0
 25 27  1  0
 27 28  1  0
 28 29  2  0
 28 30  1  0
 30 31  1  0
 30 32  1  0
 32 33  1  0
 33 34  2  0
 33 35  1  0
 35 36  1  0
 35 37  1  0
 37 38  1  0
 38 39  2  0
 38 40  1  0
 40 41  1  0
 40 42  1  0
 42 43  1  0
 43 44  2  0
 43 45  1  0
 45 46  1  0
 45 47  1  0
 47 48  1  0
 48 49  2  0
 48 50  1  0
 50 51  1  0
 50 52  1  0
 52 53  1  0
 53 54  2  0
 53 55  1  0
 55 56  1  0
 56 57  1  0
 57 58  1  0
 55 59  1  0
 59 60  1  0
 60 61  2  0
 60 62  1  0
 62 63  1  0
 62 64  1  0
 64 65  1  0
 65 66  2  0
 65 67  1  0
 67 68  1  0
 67 69  1  0
 69 70  1  0
 70 71  2  0
 70 72  1  0
 72 73  1  0
 72 74  1  0
 74 75  1  0
 75 76  2  0
 75 77  1  0
 77 78  1  0
 77 79  1  0
 79 80  1  0
 80 81  2  0
 80 82  1  0
 82 83  1  0
 82 84  1  0
 84 85  1  0
 85 86  2  0
 85  5  1  0
 14  9  2  0
 58 11  1  0
  1 87  1  0
  1 88  1  0
  1 89  1  0
  4 90  1  0
  5 91  1  1
  6 92  1  0
  6 93  1  0
  8 94  1  0
  8 95  1  0
 10 96  1  0
 12 97  1  0
 14 98  1  0
 15 99  1  0
 15100  1  0
 17101  1  0
 17102  1  0
 18103  1  6
 20104  1  0
 20105  1  0
 22106  1  0
 25107  1  6
 26108  1  0
 26109  1  0
 26110  1  0
 27111  1  0
 30112  1  6
 31113  1  0
 31114  1  0
 31115  1  0
 32116  1  0
 35117  1  6
 36118  1  0
 36119  1  0
 36120  1  0
 37121  1  0
 40122  1  6
 41123  1  0
 41124  1  0
 41125  1  0
 42126  1  0
 45127  1  1
 46128  1  0
 46129  1  0
 46130  1  0
 47131  1  0
 50132  1  1
 51133  1  0
 51134  1  0
 51135  1  0
 52136  1  0
 55137  1  1
 56138  1  0
 56139  1  0
 58140  1  0
 58141  1  0
 59142  1  0
 62143  1  1
 63144  1  0
 63145  1  0
 63146  1  0
 64147  1  0
 67148  1  6
 68149  1  0
 68150  1  0
 68151  1  0
 69152  1  0
 72153  1  6
 73154  1  0
 73155  1  0
 73156  1  0
 74157  1  0
 77158  1  1
 78159  1  0
 78160  1  0
 78161  1  0
 79162  1  0
 82163  1  6
 83164  1  0
 83165  1  0
 83166  1  0
 84167  1  0
M  END
