
     RDKit          3D

187189  0  0  0  0  0  0  0  0999 V2000
   -9.7931    6.9796    1.8316 C   0  0  0  0  0  0  0  0  0  0  0  0
   -8.3561    6.5631    1.7240 C   0  0  0  0  0  0  0  0  0  0  0  0
   -7.4566    7.4476    1.6614 O   0  0  0  0  0  0  0  0  0  0  0  0
   -7.9869    5.1814    1.7007 N   0  0  0  0  0  0  0  0  0  0  0  0
   -7.1982    4.6318    0.5925 C   0  0  1  0  0  0  0  0  0  0  0  0
   -5.9914    3.8445    1.1311 C   0  0  0  0  0  0  0  0  0  0  0  0
   -4.7504    3.6527   -0.1903 S   0  0  0  0  0  0  0  0  0  0  0  0
   -3.5464    2.7170    0.8001 C   0  0  0  0  0  0  0  0  0  0  0  0
   -2.3276    2.4610   -0.0415 C   0  0  0  0  0  0  0  0  0  0  0  0
   -2.3377    1.4486   -1.0116 C   0  0  0  0  0  0  0  0  0  0  0  0
   -1.2100    1.2121   -1.8193 C   0  0  0  0  0  0  0  0  0  0  0  0
   -0.0692    2.0167   -1.6630 C   0  0  0  0  0  0  0  0  0  0  0  0
   -0.0533    3.0487   -0.7081 C   0  0  0  0  0  0  0  0  0  0  0  0
   -1.1724    3.2461    0.1185 C   0  0  0  0  0  0  0  0  0  0  0  0
    1.1279    3.9663   -0.5768 C   0  0  0  0  0  0  0  0  0  0  0  0
    0.5971    5.6862   -0.9743 S   0  0  0  0  0  0  0  0  0  0  0  0
    1.5644    6.5304    0.3362 C   0  0  0  0  0  0  0  0  0  0  0  0
    2.9879    6.8543   -0.1480 C   0  0  1  0  0  0  0  0  0  0  0  0
    2.9649    8.0436   -1.0729 C   0  0  0  0  0  0  0  0  0  0  0  0
    3.2078    7.8729   -2.4675 N   0  0  0  0  0  0  0  0  0  0  0  0
    2.7287    9.1981   -0.6166 O   0  0  0  0  0  0  0  0  0  0  0  0
    3.8542    7.1294    1.0126 N   0  0  0  0  0  0  0  0  0  0  0  0
    5.0222    6.3627    1.3468 C   0  0  0  0  0  0  0  0  0  0  0  0
    5.3309    6.2469    2.5637 O   0  0  0  0  0  0  0  0  0  0  0  0
    5.8910    5.7124    0.2838 C   0  0  1  0  0  0  0  0  0  0  0  0
    6.4537    6.7639   -0.6893 C   0  0  0  0  0  0  0  0  0  0  0  0
    6.9819    4.9235    0.8814 N   0  0  0  0  0  0  0  0  0  0  0  0
    8.2069    5.5177    1.3432 C   0  0  0  0  0  0  0  0  0  0  0  0
    8.1783    6.4403    2.1996 O   0  0  0  0  0  0  0  0  0  0  0  0
    9.5043    5.0867    0.7210 C   0  0  1  0  0  0  0  0  0  0  0  0
   10.3591    6.3037    0.3429 C   0  0  0  0  0  0  0  0  0  0  0  0
   10.2464    4.2152    1.6385 N   0  0  0  0  0  0  0  0  0  0  0  0
   11.0207    3.0814    1.1984 C   0  0  0  0  0  0  0  0  0  0  0  0
   12.1114    2.8213    1.7863 O   0  0  0  0  0  0  0  0  0  0  0  0
   10.5767    2.2083    0.0501 C   0  0  1  0  0  0  0  0  0  0  0  0
   11.2488    2.6459   -1.2584 C   0  0  0  0  0  0  0  0  0  0  0  0
   10.8837    0.8025    0.3156 N   0  0  0  0  0  0  0  0  0  0  0  0
    9.8976   -0.0961    0.8363 C   0  0  0  0  0  0  0  0  0  0  0  0
    9.5153    0.0347    2.0346 O   0  0  0  0  0  0  0  0  0  0  0  0
    9.2978   -1.1648   -0.0308 C   0  0  1  0  0  0  0  0  0  0  0  0
    8.3946   -0.5374   -1.0942 C   0  0  0  0  0  0  0  0  0  0  0  0
   10.3584   -1.9431   -0.6865 N   0  0  0  0  0  0  0  0  0  0  0  0
   10.4581   -3.3801   -0.6973 C   0  0  0  0  0  0  0  0  0  0  0  0
   11.0896   -3.9284   -1.6430 O   0  0  0  0  0  0  0  0  0  0  0  0
    9.9026   -4.2714    0.3924 C   0  0  1  0  0  0  0  0  0  0  0  0
   10.4860   -3.9024    1.7654 C   0  0  0  0  0  0  0  0  0  0  0  0
    8.4321   -4.2673    0.4120 N   0  0  0  0  0  0  0  0  0  0  0  0
    7.6598   -4.8268   -0.6605 C   0  0  0  0  0  0  0  0  0  0  0  0
    7.9773   -4.5657   -1.8513 O   0  0  0  0  0  0  0  0  0  0  0  0
    6.5700   -5.8492   -0.4097 C   0  0  1  0  0  0  0  0  0  0  0  0
    7.2112   -7.1656    0.0604 C   0  0  0  0  0  0  0  0  0  0  0  0
    5.5757   -5.3727    0.5674 N   0  0  0  0  0  0  0  0  0  0  0  0
    4.3015   -5.9940    0.8001 C   0  0  0  0  0  0  0  0  0  0  0  0
    3.6631   -5.6853    1.8467 O   0  0  0  0  0  0  0  0  0  0  0  0
    3.6550   -6.9338   -0.2023 C   0  0  1  0  0  0  0  0  0  0  0  0
    2.9020   -8.0807    0.4819 C   0  0  0  0  0  0  0  0  0  0  0  0
    2.7945   -6.1927   -1.1328 N   0  0  0  0  0  0  0  0  0  0  0  0
    1.7836   -5.2629   -0.7163 C   0  0  0  0  0  0  0  0  0  0  0  0
    1.9883   -4.0276   -0.8885 O   0  0  0  0  0  0  0  0  0  0  0  0
    0.4496   -5.7288   -0.1793 C   0  0  1  0  0  0  0  0  0  0  0  0
    0.1434   -5.1093    1.1870 C   0  0  0  0  0  0  0  0  0  0  0  0
   -0.6316   -5.4853   -1.1409 N   0  0  0  0  0  0  0  0  0  0  0  0
   -0.9017   -4.2235   -1.7609 C   0  0  0  0  0  0  0  0  0  0  0  0
   -0.7390   -4.1156   -3.0044 O   0  0  0  0  0  0  0  0  0  0  0  0
   -1.5358   -3.0899   -0.9941 C   0  0  1  0  0  0  0  0  0  0  0  0
   -0.6722   -1.8138   -0.9362 C   0  0  0  0  0  0  0  0  0  0  0  0
   -0.0548   -1.2078   -2.5619 S   0  0  0  0  0  0  0  0  0  0  0  0
   -1.2554    0.1392   -2.8710 C   0  0  0  0  0  0  0  0  0  0  0  0
   -2.8568   -2.7943   -1.5450 N   0  0  0  0  0  0  0  0  0  0  0  0
   -4.0682   -2.9023   -0.7693 C   0  0  0  0  0  0  0  0  0  0  0  0
   -4.8857   -1.9452   -0.7970 O   0  0  0  0  0  0  0  0  0  0  0  0
   -4.2993   -4.0745    0.1733 C   0  0  1  0  0  0  0  0  0  0  0  0
   -4.3541   -3.5998    1.6222 C   0  0  0  0  0  0  0  0  0  0  0  0
   -5.5073   -4.8434   -0.1635 N   0  0  0  0  0  0  0  0  0  0  0  0
   -6.7786   -4.2603   -0.4822 C   0  0  0  0  0  0  0  0  0  0  0  0
   -6.9022   -3.5792   -1.5329 O   0  0  0  0  0  0  0  0  0  0  0  0
   -8.0117   -4.5094    0.3584 C   0  0  1  0  0  0  0  0  0  0  0  0
   -7.7674   -5.4478    1.5495 C   0  0  0  0  0  0  0  0  0  0  0  0
   -8.5284   -3.2268    0.8562 N   0  0  0  0  0  0  0  0  0  0  0  0
   -9.8997   -2.8093    0.7610 C   0  0  0  0  0  0  0  0  0  0  0  0
  -10.3712   -2.0735    1.6747 O   0  0  0  0  0  0  0  0  0  0  0  0
  -10.8083   -3.2783   -0.3606 C   0  0  1  0  0  0  0  0  0  0  0  0
  -11.6081   -4.4975    0.1228 C   0  0  0  0  0  0  0  0  0  0  0  0
  -11.7422   -2.2419   -0.8319 N   0  0  0  0  0  0  0  0  0  0  0  0
  -11.6385   -0.8268   -0.6146 C   0  0  0  0  0  0  0  0  0  0  0  0
  -12.6329   -0.2217   -0.1319 O   0  0  0  0  0  0  0  0  0  0  0  0
  -10.3951   -0.0236   -0.9588 C   0  0  1  0  0  0  0  0  0  0  0  0
   -9.5361   -0.6785   -2.0420 C   0  0  0  0  0  0  0  0  0  0  0  0
  -10.7909    1.3132   -1.4157 N   0  0  0  0  0  0  0  0  0  0  0  0
  -11.1009    2.4079   -0.5315 C   0  0  0  0  0  0  0  0  0  0  0  0
  -12.1450    3.0836   -0.7610 O   0  0  0  0  0  0  0  0  0  0  0  0
  -10.2266    2.8068    0.6321 C   0  0  1  0  0  0  0  0  0  0  0  0
  -10.5844    2.0562    1.9148 C   0  0  0  0  0  0  0  0  0  0  0  0
   -8.8072    2.6764    0.3128 N   0  0  0  0  0  0  0  0  0  0  0  0
   -8.0879    3.7697   -0.2624 C   0  0  0  0  0  0  0  0  0  0  0  0
   -8.2363    4.0385   -1.4834 O   0  0  0  0  0  0  0  0  0  0  0  0
   -9.9491    7.5459    2.7795 H   0  0  0  0  0  0  0  0  0  0  0  0
  -10.0483    7.6316    0.9633 H   0  0  0  0  0  0  0  0  0  0  0  0
  -10.4578    6.0893    1.8244 H   0  0  0  0  0  0  0  0  0  0  0  0
   -8.4786    4.5257    2.3510 H   0  0  0  0  0  0  0  0  0  0  0  0
   -6.8098    5.4800   -0.0253 H   0  0  0  0  0  0  0  0  0  0  0  0
   -6.3142    2.8521    1.5088 H   0  0  0  0  0  0  0  0  0  0  0  0
   -5.5329    4.4061    1.9758 H   0  0  0  0  0  0  0  0  0  0  0  0
   -3.9968    1.7493    1.1104 H   0  0  0  0  0  0  0  0  0  0  0  0
   -3.2804    3.2864    1.7151 H   0  0  0  0  0  0  0  0  0  0  0  0
   -3.2350    0.8576   -1.1409 H   0  0  0  0  0  0  0  0  0  0  0  0
    0.8007    1.8510   -2.2931 H   0  0  0  0  0  0  0  0  0  0  0  0
   -1.1591    4.0408    0.8484 H   0  0  0  0  0  0  0  0  0  0  0  0
    1.5319    3.8656    0.4564 H   0  0  0  0  0  0  0  0  0  0  0  0
    1.9424    3.6867   -1.2821 H   0  0  0  0  0  0  0  0  0  0  0  0
    1.5934    5.9221    1.2642 H   0  0  0  0  0  0  0  0  0  0  0  0
    1.0276    7.4717    0.5978 H   0  0  0  0  0  0  0  0  0  0  0  0
    3.3609    5.9698   -0.6958 H   0  0  0  0  0  0  0  0  0  0  0  0
    3.3701    6.9209   -2.8747 H   0  0  0  0  0  0  0  0  0  0  0  0
    3.1895    8.6991   -3.1091 H   0  0  0  0  0  0  0  0  0  0  0  0
    3.5108    7.8193    1.7238 H   0  0  0  0  0  0  0  0  0  0  0  0
    5.2658    5.0033   -0.2955 H   0  0  0  0  0  0  0  0  0  0  0  0
    7.1575    6.2915   -1.4045 H   0  0  0  0  0  0  0  0  0  0  0  0
    5.6329    7.2255   -1.2675 H   0  0  0  0  0  0  0  0  0  0  0  0
    6.9859    7.5592   -0.1379 H   0  0  0  0  0  0  0  0  0  0  0  0
    6.9925    3.8972    0.6914 H   0  0  0  0  0  0  0  0  0  0  0  0
    9.2659    4.5544   -0.2174 H   0  0  0  0  0  0  0  0  0  0  0  0
   10.6785    6.8558    1.2550 H   0  0  0  0  0  0  0  0  0  0  0  0
   11.2651    5.9725   -0.2095 H   0  0  0  0  0  0  0  0  0  0  0  0
    9.7777    6.9908   -0.3061 H   0  0  0  0  0  0  0  0  0  0  0  0
   10.4658    4.5958    2.5854 H   0  0  0  0  0  0  0  0  0  0  0  0
    9.4714    2.3054   -0.0810 H   0  0  0  0  0  0  0  0  0  0  0  0
   12.3523    2.5051   -1.1957 H   0  0  0  0  0  0  0  0  0  0  0  0
   10.8583    2.0403   -2.1035 H   0  0  0  0  0  0  0  0  0  0  0  0
   11.0418    3.7140   -1.4725 H   0  0  0  0  0  0  0  0  0  0  0  0
   11.8460    0.4333    0.1289 H   0  0  0  0  0  0  0  0  0  0  0  0
    8.6579   -1.8114    0.6042 H   0  0  0  0  0  0  0  0  0  0  0  0
    7.9205   -1.3363   -1.7091 H   0  0  0  0  0  0  0  0  0  0  0  0
    8.9829    0.1271   -1.7687 H   0  0  0  0  0  0  0  0  0  0  0  0
    7.5887    0.0646   -0.6153 H   0  0  0  0  0  0  0  0  0  0  0  0
   10.9722   -1.4248   -1.3571 H   0  0  0  0  0  0  0  0  0  0  0  0
   10.2257   -5.3199    0.1834 H   0  0  0  0  0  0  0  0  0  0  0  0
   10.1925   -2.8750    2.0670 H   0  0  0  0  0  0  0  0  0  0  0  0
   11.5944   -3.9611    1.7351 H   0  0  0  0  0  0  0  0  0  0  0  0
   10.1220   -4.6175    2.5342 H   0  0  0  0  0  0  0  0  0  0  0  0
    7.9530   -4.0551    1.3185 H   0  0  0  0  0  0  0  0  0  0  0  0
    6.0523   -6.0280   -1.3759 H   0  0  0  0  0  0  0  0  0  0  0  0
    6.4433   -7.9132    0.3279 H   0  0  0  0  0  0  0  0  0  0  0  0
    7.8445   -6.9904    0.9560 H   0  0  0  0  0  0  0  0  0  0  0  0
    7.8424   -7.5854   -0.7494 H   0  0  0  0  0  0  0  0  0  0  0  0
    5.8360   -4.6100    1.2362 H   0  0  0  0  0  0  0  0  0  0  0  0
    4.4436   -7.4275   -0.8002 H   0  0  0  0  0  0  0  0  0  0  0  0
    2.3791   -8.7017   -0.2758 H   0  0  0  0  0  0  0  0  0  0  0  0
    2.1661   -7.7064    1.2261 H   0  0  0  0  0  0  0  0  0  0  0  0
    3.6287   -8.7273    1.0181 H   0  0  0  0  0  0  0  0  0  0  0  0
    3.1432   -6.0793   -2.1148 H   0  0  0  0  0  0  0  0  0  0  0  0
    0.5035   -6.8209   -0.0236 H   0  0  0  0  0  0  0  0  0  0  0  0
   -0.8908   -5.3654    1.5014 H   0  0  0  0  0  0  0  0  0  0  0  0
    0.2483   -4.0056    1.1681 H   0  0  0  0  0  0  0  0  0  0  0  0
    0.8468   -5.5049    1.9495 H   0  0  0  0  0  0  0  0  0  0  0  0
   -1.0339   -6.3277   -1.6125 H   0  0  0  0  0  0  0  0  0  0  0  0
   -1.6540   -3.3990    0.0571 H   0  0  0  0  0  0  0  0  0  0  0  0
   -1.2375   -1.0208   -0.4069 H   0  0  0  0  0  0  0  0  0  0  0  0
    0.2209   -2.0205   -0.3112 H   0  0  0  0  0  0  0  0  0  0  0  0
   -1.0081    0.6004   -3.8496 H   0  0  0  0  0  0  0  0  0  0  0  0
   -2.2789   -0.2777   -2.9672 H   0  0  0  0  0  0  0  0  0  0  0  0
   -2.9247   -2.3620   -2.4970 H   0  0  0  0  0  0  0  0  0  0  0  0
   -3.4343   -4.7714    0.0822 H   0  0  0  0  0  0  0  0  0  0  0  0
   -3.4338   -3.0482    1.8818 H   0  0  0  0  0  0  0  0  0  0  0  0
   -4.4260   -4.4803    2.2994 H   0  0  0  0  0  0  0  0  0  0  0  0
   -5.2353   -2.9476    1.7939 H   0  0  0  0  0  0  0  0  0  0  0  0
   -5.4760   -5.8696    0.0623 H   0  0  0  0  0  0  0  0  0  0  0  0
   -8.7548   -5.0068   -0.2960 H   0  0  0  0  0  0  0  0  0  0  0  0
   -6.9763   -5.0406    2.2179 H   0  0  0  0  0  0  0  0  0  0  0  0
   -7.4729   -6.4559    1.1925 H   0  0  0  0  0  0  0  0  0  0  0  0
   -8.7029   -5.5550    2.1397 H   0  0  0  0  0  0  0  0  0  0  0  0
   -7.9004   -2.6637    1.4752 H   0  0  0  0  0  0  0  0  0  0  0  0
  -10.1972   -3.5898   -1.2307 H   0  0  0  0  0  0  0  0  0  0  0  0
  -12.2707   -4.8834   -0.6906 H   0  0  0  0  0  0  0  0  0  0  0  0
  -12.2486   -4.2232    0.9935 H   0  0  0  0  0  0  0  0  0  0  0  0
  -10.9316   -5.3218    0.4382 H   0  0  0  0  0  0  0  0  0  0  0  0
  -12.6457   -2.5604   -1.2542 H   0  0  0  0  0  0  0  0  0  0  0  0
   -9.7675    0.0520   -0.0527 H   0  0  0  0  0  0  0  0  0  0  0  0
  -10.1633   -0.9775   -2.9137 H   0  0  0  0  0  0  0  0  0  0  0  0
   -9.0049   -1.5652   -1.6450 H   0  0  0  0  0  0  0  0  0  0  0  0
   -8.7655    0.0381   -2.4017 H   0  0  0  0  0  0  0  0  0  0  0  0
  -11.2396    1.3584   -2.3682 H   0  0  0  0  0  0  0  0  0  0  0  0
  -10.4384    3.8815    0.8346 H   0  0  0  0  0  0  0  0  0  0  0  0
  -11.6382    2.2752    2.2061 H   0  0  0  0  0  0  0  0  0  0  0  0
  -10.4840    0.9593    1.8016 H   0  0  0  0  0  0  0  0  0  0  0  0
   -9.9172    2.3803    2.7403 H   0  0  0  0  0  0  0  0  0  0  0  0
   -8.3235    1.7489    0.3708 H   0  0  0  0  0  0  0  0  0  0  0  0
  1  2  1  0
  2  3  2  0
  2  4  1  0
  4  5  1  0
  5  6  1  0
  6  7  1  0
  7  8  1  0
  8  9  1  0
  9 10  1  0
 10 11  2  0
 11 12  1  0
 12 13  2  0
 13 14  1  0
 13 15  1  0
 15 16  1  0
 16 17  1  0
 17 18  1  0
 18 19  1  0
 19 20  1  0
 19 21  2  0
 18 22  1  0
 22 23  1  0
 23 24  2  0
 23 25  1  0
 25 26  1  0
 25 27  1  0
 27 28  1  0
 28 29  2  0
 28 30  1  0
 30 31  1  0
 30 32  1  0
 32 33  1  0
 33 34  2  0
 33 35  1  0
 35 36  1  0
 35 37  1  0
 37 38  1  0
 38 39  2  0
 38 40  1  0
 40 41  1  0
 40 42  1  0
 42 43  1  0
 43 44  2  0
 43 45  1  0
 45 46  1  0
 45 47  1  0
 47 48  1  0
 48 49  2  0
 48 50  1  0
 50 51  1  0
 50 52  1  0
 52 53  1  0
 53 54  2  0
 53 55  1  0
 55 56  1  0
 55 57  1  0
 57 58  1  0
 58 59  2  0
 58 60  1  0
 60 61  1  0
 60 62  1  0
 62 63  1  0
 63 64  2  0
 63 65  1  0
 65 66  1  0
 66 67  1  0
 67 68  1  0
 65 69  1  0
 69 70  1  0
 70 71  2  0
 70 72  1  0
 72 73  1  0
 72 74  1  0
 74 75  1  0
 75 76  2  0
 75 77  1  0
 77 78  1  0
 77 79  1  0
 79 80  1  0
 80 81  2  0
 80 82  1  0
 82 83  1  0
 82 84  1  0
 84 85  1  0
 85 86  2  0
 85 87  1  0
 87 88  1  0
 87 89  1  0
 89 90  1  0
 90 91  2  0
 90 92  1  0
 92 93  1  0
 92 94  1  0
 94 95  1  0
 95 96  2  0
 95  5  1  0
 14  9  2  0
 68 11  1  0
  1 97  1  0
  1 98  1  0
  1 99  1  0
  4100  1  0
  5101  1  6
  6102  1  0
  6103  1  0
  8104  1  0
  8105  1  0
 10106  1  0
 12107  1  0
 14108  1  0
 15109  1  0
 15110  1  0
 17111  1  0
 17112  1  0
 18113  1  6
 20114  1  0
 20115  1  0
 22116  1  0
 25117  1  6
 26118  1  0
 26119  1  0
 26120  1  0
 27121  1  0
 30122  1  6
 31123  1  0
 31124  1  0
 31125  1  0
 32126  1  0
 35127  1  6
 36128  1  0
 36129  1  0
 36130  1  0
 37131  1  0
 40132  1  1
 41133  1  0
 41134  1  0
 41135  1  0
 42136  1  0
 45137  1  6
 46138  1  0
 46139  1  0
 46140  1  0
 47141  1  0
 50142  1  6
 51143  1  0
 51144  1  0
 51145  1  0
 52146  1  0
 55147  1  6
 56148  1  0
 56149  1  0
 56150  1  0
 57151  1  0
 60152  1  1
 61153  1  0
 61154  1  0
 61155  1  0
 62156  1  0
 65157  1  1
 66158  1  0
 66159  1  0
 68160  1  0
 68161  1  0
 69162  1  0
 72163  1  1
 73164  1  0
 73165  1  0
 73166  1  0
 74167  1  0
 77168  1  6
 78169  1  0
 78170  1  0
 78171  1  0
 79172  1  0
 82173  1  6
 83174  1  0
 83175  1  0
 83176  1  0
 84177  1  0
 87178  1  1
 88179  1  0
 88180  1  0
 88181  1  0
 89182  1  0
 92183  1  1
 93184  1  0
 93185  1  0
 93186  1  0
 94187  1  0
M  END
