
     RDKit          3D

187189  0  0  0  0  0  0  0  0999 V2000
   -6.6892   -7.6458    1.1523 C   0  0  0  0  0  0  0  0  0  0  0  0
   -7.9932   -6.9458    0.9041 C   0  0  0  0  0  0  0  0  0  0  0  0
   -9.0055   -7.6499    0.6503 O   0  0  0  0  0  0  0  0  0  0  0  0
   -8.1392   -5.5132    0.9658 N   0  0  0  0  0  0  0  0  0  0  0  0
   -7.0230   -4.5539    0.9110 C   0  0  1  0  0  0  0  0  0  0  0  0
   -6.2737   -4.6562   -0.4359 C   0  0  0  0  0  0  0  0  0  0  0  0
   -4.9432   -3.4082   -0.5997 S   0  0  0  0  0  0  0  0  0  0  0  0
   -3.7204   -4.2438    0.4814 C   0  0  0  0  0  0  0  0  0  0  0  0
   -2.4233   -3.4964    0.3811 C   0  0  0  0  0  0  0  0  0  0  0  0
   -1.3357   -4.0435   -0.3123 C   0  0  0  0  0  0  0  0  0  0  0  0
   -0.1860   -3.2771   -0.5563 C   0  0  0  0  0  0  0  0  0  0  0  0
   -0.1567   -1.9343   -0.1365 C   0  0  0  0  0  0  0  0  0  0  0  0
   -1.2388   -1.3805    0.5763 C   0  0  0  0  0  0  0  0  0  0  0  0
   -2.3423   -2.1899    0.8790 C   0  0  0  0  0  0  0  0  0  0  0  0
   -1.2145    0.0672    1.0020 C   0  0  0  0  0  0  0  0  0  0  0  0
   -2.8017    0.8939    0.5748 S   0  0  0  0  0  0  0  0  0  0  0  0
   -2.2435    2.6232    0.8154 C   0  0  0  0  0  0  0  0  0  0  0  0
   -1.5424    3.1825   -0.4422 C   0  0  1  0  0  0  0  0  0  0  0  0
   -2.3036    2.8768   -1.6670 N   0  0  0  0  0  0  0  0  0  0  0  0
   -3.7171    3.0920   -1.8623 C   0  0  0  0  0  0  0  0  0  0  0  0
   -4.3468    2.3055   -2.6208 O   0  0  0  0  0  0  0  0  0  0  0  0
   -4.4484    4.2880   -1.2941 C   0  0  1  0  0  0  0  0  0  0  0  0
   -4.7166    5.3029   -2.4077 C   0  0  0  0  0  0  0  0  0  0  0  0
   -5.7180    3.8819   -0.6844 N   0  0  0  0  0  0  0  0  0  0  0  0
   -6.4134    4.7827    0.1929 C   0  0  0  0  0  0  0  0  0  0  0  0
   -5.7577    5.4411    1.0437 O   0  0  0  0  0  0  0  0  0  0  0  0
   -7.9122    4.9670    0.1053 C   0  0  1  0  0  0  0  0  0  0  0  0
   -8.2654    6.4597    0.1541 C   0  0  0  0  0  0  0  0  0  0  0  0
   -8.4415    4.4083   -1.1471 N   0  0  0  0  0  0  0  0  0  0  0  0
   -9.7883    3.9418   -1.3040 C   0  0  0  0  0  0  0  0  0  0  0  0
  -10.3601    4.1221   -2.4145 O   0  0  0  0  0  0  0  0  0  0  0  0
  -10.5309    3.2180   -0.1991 C   0  0  1  0  0  0  0  0  0  0  0  0
  -11.2955    4.2092    0.6824 C   0  0  0  0  0  0  0  0  0  0  0  0
  -11.4805    2.2677   -0.7824 N   0  0  0  0  0  0  0  0  0  0  0  0
  -11.0962    0.9258   -1.0826 C   0  0  0  0  0  0  0  0  0  0  0  0
  -10.8714    0.6092   -2.2844 O   0  0  0  0  0  0  0  0  0  0  0  0
  -10.9594   -0.1217   -0.0030 C   0  0  1  0  0  0  0  0  0  0  0  0
  -11.7102    0.2653    1.2707 C   0  0  0  0  0  0  0  0  0  0  0  0
  -11.4947   -1.3971   -0.4976 N   0  0  0  0  0  0  0  0  0  0  0  0
  -10.7901   -2.6467   -0.6415 C   0  0  0  0  0  0  0  0  0  0  0  0
  -11.4757   -3.6920   -0.8106 O   0  0  0  0  0  0  0  0  0  0  0  0
   -9.2784   -2.7935   -0.6141 C   0  0  1  0  0  0  0  0  0  0  0  0
   -8.5702   -1.8613   -1.6095 C   0  0  0  0  0  0  0  0  0  0  0  0
   -8.7559   -2.6197    0.7476 N   0  0  0  0  0  0  0  0  0  0  0  0
   -7.4954   -3.1399    1.2032 C   0  0  0  0  0  0  0  0  0  0  0  0
   -6.7938   -2.4191    1.9656 O   0  0  0  0  0  0  0  0  0  0  0  0
   -1.2533    4.6639   -0.3238 C   0  0  0  0  0  0  0  0  0  0  0  0
   -1.5147    5.4343   -1.2881 O   0  0  0  0  0  0  0  0  0  0  0  0
   -0.6749    5.2251    0.8648 N   0  0  0  0  0  0  0  0  0  0  0  0
    0.5388    4.6715    1.4703 C   0  0  2  0  0  0  0  0  0  0  0  0
    0.4974    4.8742    2.9899 C   0  0  0  0  0  0  0  0  0  0  0  0
    1.7496    5.2730    0.7893 C   0  0  0  0  0  0  0  0  0  0  0  0
    1.8817    5.0772   -0.4445 O   0  0  0  0  0  0  0  0  0  0  0  0
    2.7570    6.0171    1.5022 N   0  0  0  0  0  0  0  0  0  0  0  0
    4.0901    6.3110    0.9600 C   0  0  2  0  0  0  0  0  0  0  0  0
    4.0121    7.3601   -0.1561 C   0  0  0  0  0  0  0  0  0  0  0  0
    4.7916    5.0483    0.5407 C   0  0  0  0  0  0  0  0  0  0  0  0
    5.3091    4.3105    1.4224 O   0  0  0  0  0  0  0  0  0  0  0  0
    4.8162    4.6245   -0.8273 N   0  0  0  0  0  0  0  0  0  0  0  0
    6.0102    4.7747   -1.6575 C   0  0  2  0  0  0  0  0  0  0  0  0
    5.7179    4.3589   -3.1015 C   0  0  0  0  0  0  0  0  0  0  0  0
    7.1269    3.9461   -1.0841 C   0  0  0  0  0  0  0  0  0  0  0  0
    6.9665    2.7028   -0.9309 O   0  0  0  0  0  0  0  0  0  0  0  0
    8.3401    4.5768   -0.6561 N   0  0  0  0  0  0  0  0  0  0  0  0
    8.9890    4.2061    0.6017 C   0  0  2  0  0  0  0  0  0  0  0  0
    8.8031    5.3272    1.6301 C   0  0  0  0  0  0  0  0  0  0  0  0
   10.4509    3.9249    0.3545 C   0  0  0  0  0  0  0  0  0  0  0  0
   11.2324    4.8967    0.1609 O   0  0  0  0  0  0  0  0  0  0  0  0
   10.9925    2.5927    0.3239 N   0  0  0  0  0  0  0  0  0  0  0  0
   10.1941    1.3596    0.3113 C   0  0  2  0  0  0  0  0  0  0  0  0
    9.9807    0.8812    1.7525 C   0  0  0  0  0  0  0  0  0  0  0  0
   10.8819    0.3196   -0.5446 C   0  0  0  0  0  0  0  0  0  0  0  0
   11.3876    0.6702   -1.6450 O   0  0  0  0  0  0  0  0  0  0  0  0
   10.9923   -1.0494   -0.1380 N   0  0  0  0  0  0  0  0  0  0  0  0
    9.8315   -1.9420   -0.1817 C   0  0  2  0  0  0  0  0  0  0  0  0
    9.9016   -2.9137    0.9968 C   0  0  0  0  0  0  0  0  0  0  0  0
    9.7829   -2.6132   -1.5386 C   0  0  0  0  0  0  0  0  0  0  0  0
    9.6059   -1.8888   -2.5567 O   0  0  0  0  0  0  0  0  0  0  0  0
   10.0577   -4.0112   -1.7323 N   0  0  0  0  0  0  0  0  0  0  0  0
    9.1408   -5.0845   -1.3196 C   0  0  2  0  0  0  0  0  0  0  0  0
    9.4553   -6.3716   -2.0882 C   0  0  0  0  0  0  0  0  0  0  0  0
    7.7030   -4.6826   -1.5497 C   0  0  0  0  0  0  0  0  0  0  0  0
    7.3077   -4.3952   -2.7122 O   0  0  0  0  0  0  0  0  0  0  0  0
    6.8028   -4.5435   -0.4453 N   0  0  0  0  0  0  0  0  0  0  0  0
    6.0040   -5.6477    0.0984 C   0  0  2  0  0  0  0  0  0  0  0  0
    6.8888   -6.6401    0.8637 C   0  0  0  0  0  0  0  0  0  0  0  0
    5.2220   -6.3320   -1.0013 C   0  0  0  0  0  0  0  0  0  0  0  0
    5.8537   -6.9397   -1.9074 O   0  0  0  0  0  0  0  0  0  0  0  0
    3.7889   -6.2612   -1.0991 N   0  0  0  0  0  0  0  0  0  0  0  0
    2.8357   -6.2806    0.0246 C   0  0  1  0  0  0  0  0  0  0  0  0
    3.2776   -7.2552    1.0943 C   0  0  0  0  0  0  0  0  0  0  0  0
    3.6644   -8.5804    0.7390 N   0  0  0  0  0  0  0  0  0  0  0  0
    3.2867   -6.9174    2.3071 O   0  0  0  0  0  0  0  0  0  0  0  0
    2.5278   -4.8594    0.5735 C   0  0  0  0  0  0  0  0  0  0  0  0
    2.5771   -3.5507   -0.7108 S   0  0  0  0  0  0  0  0  0  0  0  0
    0.9168   -3.8445   -1.4174 C   0  0  0  0  0  0  0  0  0  0  0  0
   -5.8778   -6.9565    1.4492 H   0  0  0  0  0  0  0  0  0  0  0  0
   -6.3763   -8.1882    0.2367 H   0  0  0  0  0  0  0  0  0  0  0  0
   -6.8151   -8.3827    1.9736 H   0  0  0  0  0  0  0  0  0  0  0  0
   -9.1159   -5.1519    1.0334 H   0  0  0  0  0  0  0  0  0  0  0  0
   -6.3118   -4.8139    1.7221 H   0  0  0  0  0  0  0  0  0  0  0  0
   -5.8359   -5.6648   -0.5641 H   0  0  0  0  0  0  0  0  0  0  0  0
   -6.9743   -4.5186   -1.2839 H   0  0  0  0  0  0  0  0  0  0  0  0
   -4.0687   -4.2445    1.5344 H   0  0  0  0  0  0  0  0  0  0  0  0
   -3.5929   -5.2985    0.1516 H   0  0  0  0  0  0  0  0  0  0  0  0
   -1.4032   -5.0517   -0.7022 H   0  0  0  0  0  0  0  0  0  0  0  0
    0.6890   -1.3116   -0.3923 H   0  0  0  0  0  0  0  0  0  0  0  0
   -3.1738   -1.7856    1.4382 H   0  0  0  0  0  0  0  0  0  0  0  0
   -0.3726    0.5944    0.5044 H   0  0  0  0  0  0  0  0  0  0  0  0
   -1.0539    0.1247    2.1009 H   0  0  0  0  0  0  0  0  0  0  0  0
   -1.5708    2.6735    1.6972 H   0  0  0  0  0  0  0  0  0  0  0  0
   -3.1366    3.2311    1.0551 H   0  0  0  0  0  0  0  0  0  0  0  0
   -0.5604    2.6748   -0.5235 H   0  0  0  0  0  0  0  0  0  0  0  0
   -1.8204    2.2797   -2.3762 H   0  0  0  0  0  0  0  0  0  0  0  0
   -3.8362    4.7856   -0.5252 H   0  0  0  0  0  0  0  0  0  0  0  0
   -3.7694    5.5740   -2.9217 H   0  0  0  0  0  0  0  0  0  0  0  0
   -5.4314    4.8862   -3.1556 H   0  0  0  0  0  0  0  0  0  0  0  0
   -5.1571    6.2287   -1.9763 H   0  0  0  0  0  0  0  0  0  0  0  0
   -6.2555    3.0915   -1.1089 H   0  0  0  0  0  0  0  0  0  0  0  0
   -8.3576    4.4530    0.9803 H   0  0  0  0  0  0  0  0  0  0  0  0
   -9.3605    6.6077    0.0349 H   0  0  0  0  0  0  0  0  0  0  0  0
   -7.7478    7.0052   -0.6658 H   0  0  0  0  0  0  0  0  0  0  0  0
   -7.9614    6.8994    1.1282 H   0  0  0  0  0  0  0  0  0  0  0  0
   -7.9261    4.6441   -2.0273 H   0  0  0  0  0  0  0  0  0  0  0  0
   -9.7986    2.6696    0.4332 H   0  0  0  0  0  0  0  0  0  0  0  0
  -12.0305    4.7840    0.0777 H   0  0  0  0  0  0  0  0  0  0  0  0
  -11.8343    3.6591    1.4803 H   0  0  0  0  0  0  0  0  0  0  0  0
  -10.6049    4.9221    1.1746 H   0  0  0  0  0  0  0  0  0  0  0  0
  -12.2875    2.6569   -1.3187 H   0  0  0  0  0  0  0  0  0  0  0  0
   -9.8902   -0.2045    0.2599 H   0  0  0  0  0  0  0  0  0  0  0  0
  -11.2361    1.1390    1.7604 H   0  0  0  0  0  0  0  0  0  0  0  0
  -11.6908   -0.5795    1.9965 H   0  0  0  0  0  0  0  0  0  0  0  0
  -12.7729    0.5035    1.0463 H   0  0  0  0  0  0  0  0  0  0  0  0
  -12.5172   -1.4126   -0.7166 H   0  0  0  0  0  0  0  0  0  0  0  0
   -9.0667   -3.8298   -0.9488 H   0  0  0  0  0  0  0  0  0  0  0  0
   -9.1541   -1.7854   -2.5558 H   0  0  0  0  0  0  0  0  0  0  0  0
   -8.4134   -0.8461   -1.1992 H   0  0  0  0  0  0  0  0  0  0  0  0
   -7.5686   -2.2657   -1.8590 H   0  0  0  0  0  0  0  0  0  0  0  0
   -9.2630   -1.9876    1.4068 H   0  0  0  0  0  0  0  0  0  0  0  0
   -0.8762    6.2333    1.0564 H   0  0  0  0  0  0  0  0  0  0  0  0
    0.5854    3.5744    1.3031 H   0  0  0  0  0  0  0  0  0  0  0  0
    0.3979    5.9540    3.2394 H   0  0  0  0  0  0  0  0  0  0  0  0
    1.4152    4.4589    3.4588 H   0  0  0  0  0  0  0  0  0  0  0  0
   -0.3796    4.3384    3.4104 H   0  0  0  0  0  0  0  0  0  0  0  0
    2.5733    6.3362    2.4792 H   0  0  0  0  0  0  0  0  0  0  0  0
    4.6999    6.7736    1.7706 H   0  0  0  0  0  0  0  0  0  0  0  0
    3.4924    8.2670    0.2167 H   0  0  0  0  0  0  0  0  0  0  0  0
    3.4678    6.9720   -1.0431 H   0  0  0  0  0  0  0  0  0  0  0  0
    5.0405    7.6507   -0.4698 H   0  0  0  0  0  0  0  0  0  0  0  0
    3.9997    4.0770   -1.1868 H   0  0  0  0  0  0  0  0  0  0  0  0
    6.3091    5.8461   -1.6626 H   0  0  0  0  0  0  0  0  0  0  0  0
    6.6460    4.3878   -3.7109 H   0  0  0  0  0  0  0  0  0  0  0  0
    4.9806    5.0566   -3.5482 H   0  0  0  0  0  0  0  0  0  0  0  0
    5.2974    3.3291   -3.1353 H   0  0  0  0  0  0  0  0  0  0  0  0
    8.6190    5.4759   -1.1096 H   0  0  0  0  0  0  0  0  0  0  0  0
    8.4935    3.3102    1.0303 H   0  0  0  0  0  0  0  0  0  0  0  0
    9.2548    6.2723    1.2646 H   0  0  0  0  0  0  0  0  0  0  0  0
    7.7241    5.5038    1.8060 H   0  0  0  0  0  0  0  0  0  0  0  0
    9.2777    5.0419    2.5917 H   0  0  0  0  0  0  0  0  0  0  0  0
   12.0329    2.5038    0.3443 H   0  0  0  0  0  0  0  0  0  0  0  0
    9.2111    1.5505   -0.1638 H   0  0  0  0  0  0  0  0  0  0  0  0
   10.9307    0.5004    2.1850 H   0  0  0  0  0  0  0  0  0  0  0  0
    9.2098    0.0841    1.7909 H   0  0  0  0  0  0  0  0  0  0  0  0
    9.6232    1.7191    2.3899 H   0  0  0  0  0  0  0  0  0  0  0  0
   11.9353   -1.4904   -0.2120 H   0  0  0  0  0  0  0  0  0  0  0  0
    8.8937   -1.3519   -0.0699 H   0  0  0  0  0  0  0  0  0  0  0  0
   10.7473   -3.6234    0.8807 H   0  0  0  0  0  0  0  0  0  0  0  0
   10.0531   -2.3454    1.9386 H   0  0  0  0  0  0  0  0  0  0  0  0
    8.9458   -3.4665    1.0987 H   0  0  0  0  0  0  0  0  0  0  0  0
   10.7812   -4.2317   -2.4511 H   0  0  0  0  0  0  0  0  0  0  0  0
    9.2964   -5.2979   -0.2406 H   0  0  0  0  0  0  0  0  0  0  0  0
   10.4946   -6.6919   -1.8723 H   0  0  0  0  0  0  0  0  0  0  0  0
    8.7731   -7.1925   -1.7918 H   0  0  0  0  0  0  0  0  0  0  0  0
    9.3540   -6.2084   -3.1820 H   0  0  0  0  0  0  0  0  0  0  0  0
    6.5820   -3.5719   -0.1267 H   0  0  0  0  0  0  0  0  0  0  0  0
    5.3054   -5.2242    0.8418 H   0  0  0  0  0  0  0  0  0  0  0  0
    6.2593   -7.3982    1.3778 H   0  0  0  0  0  0  0  0  0  0  0  0
    7.5797   -7.1731    0.1811 H   0  0  0  0  0  0  0  0  0  0  0  0
    7.4887   -6.1026    1.6295 H   0  0  0  0  0  0  0  0  0  0  0  0
    3.3813   -6.4577   -2.0431 H   0  0  0  0  0  0  0  0  0  0  0  0
    1.8741   -6.6775   -0.3659 H   0  0  0  0  0  0  0  0  0  0  0  0
    3.9966   -9.2470    1.4693 H   0  0  0  0  0  0  0  0  0  0  0  0
    3.6547   -8.8934   -0.2545 H   0  0  0  0  0  0  0  0  0  0  0  0
    3.2667   -4.5662    1.3471 H   0  0  0  0  0  0  0  0  0  0  0  0
    1.5330   -4.8663    1.0742 H   0  0  0  0  0  0  0  0  0  0  0  0
    0.8666   -3.3427   -2.4068 H   0  0  0  0  0  0  0  0  0  0  0  0
    0.7745   -4.9302   -1.5995 H   0  0  0  0  0  0  0  0  0  0  0  0
  1  2  1  0
  2  3  2  0
  2  4  1  0
  4  5  1  0
  5  6  1  0
  6  7  1  0
  7  8  1  0
  8  9  1  0
  9 10  1  0
 10 11  2  0
 11 12  1  0
 12 13  2  0
 13 14  1  0
 13 15  1  0
 15 16  1  0
 16 17  1  0
 17 18  1  0
 18 19  1  0
 19 20  1  0
 20 21  2  0
 20 22  1  0
 22 23  1  0
 22 24  1  0
 24 25  1  0
 25 26  2  0
 25 27  1  0
 27 28  1  0
 27 29  1  0
 29 30  1  0
 30 31  2  0
 30 32  1  0
 32 33  1  0
 32 34  1  0
 34 35  1  0
 35 36  2  0
 35 37  1  0
 37 38  1  0
 37 39  1  0
 39 40  1  0
 40 41  2  0
 40 42  1  0
 42 43  1  0
 42 44  1  0
 44 45  1  0
 45 46  2  0
 18 47  1  0
 47 48  2  0
 47 49  1  0
 49 50  1  0
 50 51  1  0
 50 52  1  0
 52 53  2  0
 52 54  1  0
 54 55  1  0
 55 56  1  0
 55 57  1  0
 57 58  2  0
 57 59  1  0
 59 60  1  0
 60 61  1  0
 60 62  1  0
 62 63  2  0
 62 64  1  0
 64 65  1  0
 65 66  1  0
 65 67  1  0
 67 68  2  0
 67 69  1  0
 69 70  1  0
 70 71  1  0
 70 72  1  0
 72 73  2  0
 72 74  1  0
 74 75  1  0
 75 76  1  0
 75 77  1  0
 77 78  2  0
 77 79  1  0
 79 80  1  0
 80 81  1  0
 80 82  1  0
 82 83  2  0
 82 84  1  0
 84 85  1  0
 85 86  1  0
 85 87  1  0
 87 88  2  0
 87 89  1  0
 89 90  1  0
 90 91  1  0
 91 92  1  0
 91 93  2  0
 90 94  1  0
 94 95  1  0
 95 96  1  0
 45  5  1  0
 14  9  2  0
 96 11  1  0
  1 97  1  0
  1 98  1  0
  1 99  1  0
  4100  1  0
  5101  1  1
  6102  1  0
  6103  1  0
  8104  1  0
  8105  1  0
 10106  1  0
 12107  1  0
 14108  1  0
 15109  1  0
 15110  1  0
 17111  1  0
 17112  1  0
 18113  1  6
 19114  1  0
 22115  1  1
 23116  1  0
 23117  1  0
 23118  1  0
 24119  1  0
 27120  1  1
 28121  1  0
 28122  1  0
 28123  1  0
 29124  1  0
 32125  1  1
 33126  1  0
 33127  1  0
 33128  1  0
 34129  1  0
 37130  1  1
 38131  1  0
 38132  1  0
 38133  1  0
 39134  1  0
 42135  1  6
 43136  1  0
 43137  1  0
 43138  1  0
 44139  1  0
 49140  1  0
 50141  1  1
 51142  1  0
 51143  1  0
 51144  1  0
 54145  1  0
 55146  1  1
 56147  1  0
 56148  1  0
 56149  1  0
 59150  1  0
 60151  1  6
 61152  1  0
 61153  1  0
 61154  1  0
 64155  1  0
 65156  1  1
 66157  1  0
 66158  1  0
 66159  1  0
 69160  1  0
 70161  1  6
 71162  1  0
 71163  1  0
 71164  1  0
 74165  1  0
 75166  1  1
 76167  1  0
 76168  1  0
 76169  1  0
 79170  1  0
 80171  1  1
 81172  1  0
 81173  1  0
 81174  1  0
 84175  1  0
 85176  1  1
 86177  1  0
 86178  1  0
 86179  1  0
 89180  1  0
 90181  1  6
 92182  1  0
 92183  1  0
 94184  1  0
 94185  1  0
 96186  1  0
 96187  1  0
M  END
