
     RDKit          3D

177179  0  0  0  0  0  0  0  0999 V2000
   -7.1808   -7.8633    0.4241 C   0  0  0  0  0  0  0  0  0  0  0  0
   -7.5406   -6.8571    1.4817 C   0  0  0  0  0  0  0  0  0  0  0  0
   -8.3780   -7.1757    2.3642 O   0  0  0  0  0  0  0  0  0  0  0  0
   -6.9700   -5.5372    1.5053 N   0  0  0  0  0  0  0  0  0  0  0  0
   -6.0834   -5.0152    0.4566 C   0  0  2  0  0  0  0  0  0  0  0  0
   -5.3406   -3.7230    0.9032 C   0  0  0  0  0  0  0  0  0  0  0  0
   -3.5398   -3.9916    1.0969 S   0  0  0  0  0  0  0  0  0  0  0  0
   -3.1694   -4.2737   -0.6755 C   0  0  0  0  0  0  0  0  0  0  0  0
   -2.1659   -3.2742   -1.1682 C   0  0  0  0  0  0  0  0  0  0  0  0
   -0.8989   -3.6884   -1.6093 C   0  0  0  0  0  0  0  0  0  0  0  0
    0.0133   -2.7579   -2.1352 C   0  0  0  0  0  0  0  0  0  0  0  0
   -0.3513   -1.4092   -2.2132 C   0  0  0  0  0  0  0  0  0  0  0  0
   -1.6034   -0.9771   -1.7500 C   0  0  0  0  0  0  0  0  0  0  0  0
   -2.5107   -1.9175   -1.2386 C   0  0  0  0  0  0  0  0  0  0  0  0
   -1.9856    0.4715   -1.8552 C   0  0  0  0  0  0  0  0  0  0  0  0
   -0.8650    1.4822   -0.8166 S   0  0  0  0  0  0  0  0  0  0  0  0
   -2.0646    1.9854    0.4764 C   0  0  0  0  0  0  0  0  0  0  0  0
   -1.7892    3.4190    0.9727 C   0  0  1  0  0  0  0  0  0  0  0  0
   -2.7653    3.7658    2.0168 N   0  0  0  0  0  0  0  0  0  0  0  0
   -4.1552    4.0303    1.7491 C   0  0  0  0  0  0  0  0  0  0  0  0
   -5.0240    3.4199    2.4256 O   0  0  0  0  0  0  0  0  0  0  0  0
   -4.6209    5.0392    0.7288 C   0  0  1  0  0  0  0  0  0  0  0  0
   -3.8054    6.3303    0.7655 C   0  0  0  0  0  0  0  0  0  0  0  0
   -4.6070    4.4512   -0.6171 N   0  0  0  0  0  0  0  0  0  0  0  0
   -5.7528    3.9485   -1.3347 C   0  0  0  0  0  0  0  0  0  0  0  0
   -5.5515    3.3679   -2.4406 O   0  0  0  0  0  0  0  0  0  0  0  0
   -7.1829    4.2186   -0.9048 C   0  0  1  0  0  0  0  0  0  0  0  0
   -7.5892    5.6107   -1.3882 C   0  0  0  0  0  0  0  0  0  0  0  0
   -8.0932    3.2146   -1.4723 N   0  0  0  0  0  0  0  0  0  0  0  0
   -9.3126    2.7415   -0.8624 C   0  0  0  0  0  0  0  0  0  0  0  0
  -10.1660    2.1739   -1.5984 O   0  0  0  0  0  0  0  0  0  0  0  0
   -9.6211    2.8870    0.6115 C   0  0  1  0  0  0  0  0  0  0  0  0
  -10.5147    4.1081    0.8363 C   0  0  0  0  0  0  0  0  0  0  0  0
  -10.2980    1.6794    1.1002 N   0  0  0  0  0  0  0  0  0  0  0  0
   -9.6454    0.4421    1.4249 C   0  0  0  0  0  0  0  0  0  0  0  0
  -10.3295   -0.4717    1.9606 O   0  0  0  0  0  0  0  0  0  0  0  0
   -8.1899    0.1664    1.0946 C   0  0  1  0  0  0  0  0  0  0  0  0
   -7.4732   -0.5331    2.2549 C   0  0  0  0  0  0  0  0  0  0  0  0
   -8.0650   -0.5991   -0.1517 N   0  0  0  0  0  0  0  0  0  0  0  0
   -8.8644   -1.7484   -0.4667 C   0  0  0  0  0  0  0  0  0  0  0  0
   -9.7562   -1.6422   -1.3527 O   0  0  0  0  0  0  0  0  0  0  0  0
   -8.5702   -3.1010    0.1340 C   0  0  1  0  0  0  0  0  0  0  0  0
   -9.8383   -3.7041    0.7463 C   0  0  0  0  0  0  0  0  0  0  0  0
   -8.0562   -3.9968   -0.9094 N   0  0  0  0  0  0  0  0  0  0  0  0
   -6.8596   -4.7936   -0.8310 C   0  0  0  0  0  0  0  0  0  0  0  0
   -6.4877   -5.4172   -1.8609 O   0  0  0  0  0  0  0  0  0  0  0  0
   -0.3882    3.5547    1.5375 C   0  0  0  0  0  0  0  0  0  0  0  0
   -0.0321    2.7697    2.4591 O   0  0  0  0  0  0  0  0  0  0  0  0
    0.5402    4.5788    1.1232 N   0  0  0  0  0  0  0  0  0  0  0  0
    0.4991    5.3562   -0.1302 C   0  0  2  0  0  0  0  0  0  0  0  0
    0.6342    4.4600   -1.3728 C   0  0  0  0  0  0  0  0  0  0  0  0
    1.5753    6.4215   -0.1473 C   0  0  0  0  0  0  0  0  0  0  0  0
    1.2204    7.6333   -0.0698 O   0  0  0  0  0  0  0  0  0  0  0  0
    2.9714    6.1237   -0.3507 N   0  0  0  0  0  0  0  0  0  0  0  0
    3.6658    4.9829    0.2549 C   0  0  2  0  0  0  0  0  0  0  0  0
    4.2037    5.3855    1.6287 C   0  0  0  0  0  0  0  0  0  0  0  0
    4.7413    4.4841   -0.6835 C   0  0  0  0  0  0  0  0  0  0  0  0
    4.4513    3.5855   -1.5213 O   0  0  0  0  0  0  0  0  0  0  0  0
    6.0442    5.0819   -0.7320 N   0  0  0  0  0  0  0  0  0  0  0  0
    7.1115    4.6740    0.1875 C   0  0  2  0  0  0  0  0  0  0  0  0
    7.9595    5.8901    0.5699 C   0  0  0  0  0  0  0  0  0  0  0  0
    7.9736    3.6091   -0.4347 C   0  0  0  0  0  0  0  0  0  0  0  0
    8.5842    3.8437   -1.5120 O   0  0  0  0  0  0  0  0  0  0  0  0
    8.1201    2.3398    0.2218 N   0  0  0  0  0  0  0  0  0  0  0  0
    9.4082    1.8164    0.7035 C   0  0  2  0  0  0  0  0  0  0  0  0
   10.1977    2.9104    1.4421 C   0  0  0  0  0  0  0  0  0  0  0  0
   10.2360    1.2350   -0.4213 C   0  0  0  0  0  0  0  0  0  0  0  0
   10.4879    1.9632   -1.4210 O   0  0  0  0  0  0  0  0  0  0  0  0
   10.8148   -0.0872   -0.3875 N   0  0  0  0  0  0  0  0  0  0  0  0
   10.8088   -1.0283    0.7465 C   0  0  2  0  0  0  0  0  0  0  0  0
   11.5906   -0.4595    1.9467 C   0  0  0  0  0  0  0  0  0  0  0  0
   11.4667   -2.3295    0.3253 C   0  0  0  0  0  0  0  0  0  0  0  0
   12.6900   -2.3043    0.0145 O   0  0  0  0  0  0  0  0  0  0  0  0
   10.7882   -3.5990    0.2962 N   0  0  0  0  0  0  0  0  0  0  0  0
    9.3426   -3.8325    0.1502 C   0  0  2  0  0  0  0  0  0  0  0  0
    8.7624   -2.9946   -0.9975 C   0  0  0  0  0  0  0  0  0  0  0  0
    8.6180   -3.6617    1.4730 C   0  0  0  0  0  0  0  0  0  0  0  0
    9.2745   -3.2423    2.4635 O   0  0  0  0  0  0  0  0  0  0  0  0
    7.2171   -3.9560    1.6854 N   0  0  0  0  0  0  0  0  0  0  0  0
    6.3276   -4.8694    0.9374 C   0  0  2  0  0  0  0  0  0  0  0  0
    7.0259   -6.1601    0.4870 C   0  0  0  0  0  0  0  0  0  0  0  0
    5.6247   -4.1710   -0.1996 C   0  0  0  0  0  0  0  0  0  0  0  0
    5.7811   -2.9296   -0.3818 O   0  0  0  0  0  0  0  0  0  0  0  0
    4.7625   -4.9002   -1.0872 N   0  0  0  0  0  0  0  0  0  0  0  0
    3.3736   -5.2440   -0.7627 C   0  0  1  0  0  0  0  0  0  0  0  0
    3.3358   -6.3805    0.2267 C   0  0  0  0  0  0  0  0  0  0  0  0
    3.7623   -7.6835   -0.1728 N   0  0  0  0  0  0  0  0  0  0  0  0
    2.9078   -6.2060    1.3984 O   0  0  0  0  0  0  0  0  0  0  0  0
    2.5792   -4.0100   -0.2794 C   0  0  0  0  0  0  0  0  0  0  0  0
    2.6770   -2.6215   -1.4694 S   0  0  0  0  0  0  0  0  0  0  0  0
    1.3709   -3.1946   -2.6162 C   0  0  0  0  0  0  0  0  0  0  0  0
   -7.7070   -8.8262    0.6178 H   0  0  0  0  0  0  0  0  0  0  0  0
   -7.4967   -7.5020   -0.5744 H   0  0  0  0  0  0  0  0  0  0  0  0
   -6.0838   -8.0583    0.4336 H   0  0  0  0  0  0  0  0  0  0  0  0
   -7.2102   -4.9398    2.3261 H   0  0  0  0  0  0  0  0  0  0  0  0
   -5.3154   -5.7964    0.2549 H   0  0  0  0  0  0  0  0  0  0  0  0
   -5.7172   -3.3665    1.8811 H   0  0  0  0  0  0  0  0  0  0  0  0
   -5.4954   -2.8930    0.1805 H   0  0  0  0  0  0  0  0  0  0  0  0
   -4.0801   -4.1876   -1.3110 H   0  0  0  0  0  0  0  0  0  0  0  0
   -2.7890   -5.3100   -0.7775 H   0  0  0  0  0  0  0  0  0  0  0  0
   -0.6279   -4.7330   -1.5587 H   0  0  0  0  0  0  0  0  0  0  0  0
    0.3478   -0.6839   -2.6238 H   0  0  0  0  0  0  0  0  0  0  0  0
   -3.4960   -1.5972   -0.9142 H   0  0  0  0  0  0  0  0  0  0  0  0
   -3.0543    0.6237   -1.6023 H   0  0  0  0  0  0  0  0  0  0  0  0
   -1.8605    0.7983   -2.9081 H   0  0  0  0  0  0  0  0  0  0  0  0
   -1.9974    1.2662    1.3222 H   0  0  0  0  0  0  0  0  0  0  0  0
   -3.1035    1.9593    0.0892 H   0  0  0  0  0  0  0  0  0  0  0  0
   -1.8995    4.1100    0.1237 H   0  0  0  0  0  0  0  0  0  0  0  0
   -2.5633    3.4103    2.9763 H   0  0  0  0  0  0  0  0  0  0  0  0
   -5.6461    5.3480    1.0033 H   0  0  0  0  0  0  0  0  0  0  0  0
   -3.8716    6.7898    1.7755 H   0  0  0  0  0  0  0  0  0  0  0  0
   -4.2187    7.0524    0.0296 H   0  0  0  0  0  0  0  0  0  0  0  0
   -2.7411    6.1583    0.5222 H   0  0  0  0  0  0  0  0  0  0  0  0
   -3.6895    4.3634   -1.1034 H   0  0  0  0  0  0  0  0  0  0  0  0
   -7.2430    4.1885    0.1939 H   0  0  0  0  0  0  0  0  0  0  0  0
   -7.4803    5.6860   -2.4914 H   0  0  0  0  0  0  0  0  0  0  0  0
   -8.6491    5.8178   -1.1341 H   0  0  0  0  0  0  0  0  0  0  0  0
   -6.9548    6.3866   -0.9058 H   0  0  0  0  0  0  0  0  0  0  0  0
   -7.9953    3.0044   -2.4913 H   0  0  0  0  0  0  0  0  0  0  0  0
   -8.7105    3.0402    1.2200 H   0  0  0  0  0  0  0  0  0  0  0  0
  -10.7944    4.1800    1.9072 H   0  0  0  0  0  0  0  0  0  0  0  0
  -11.4494    4.0338    0.2382 H   0  0  0  0  0  0  0  0  0  0  0  0
   -9.9809    5.0404    0.5642 H   0  0  0  0  0  0  0  0  0  0  0  0
  -11.3349    1.7150    1.2464 H   0  0  0  0  0  0  0  0  0  0  0  0
   -7.6497    1.1238    0.9570 H   0  0  0  0  0  0  0  0  0  0  0  0
   -8.0182   -1.4466    2.5778 H   0  0  0  0  0  0  0  0  0  0  0  0
   -6.4379   -0.8043    1.9559 H   0  0  0  0  0  0  0  0  0  0  0  0
   -7.4207    0.1554    3.1275 H   0  0  0  0  0  0  0  0  0  0  0  0
   -7.6290   -0.1013   -0.9581 H   0  0  0  0  0  0  0  0  0  0  0  0
   -7.8346   -2.9853    0.9419 H   0  0  0  0  0  0  0  0  0  0  0  0
  -10.1600   -3.1131    1.6260 H   0  0  0  0  0  0  0  0  0  0  0  0
  -10.6619   -3.7234    0.0015 H   0  0  0  0  0  0  0  0  0  0  0  0
   -9.6509   -4.7444    1.0751 H   0  0  0  0  0  0  0  0  0  0  0  0
   -8.6293   -4.0981   -1.7792 H   0  0  0  0  0  0  0  0  0  0  0  0
    1.2824    4.8082    1.8184 H   0  0  0  0  0  0  0  0  0  0  0  0
   -0.4819    5.8760   -0.1889 H   0  0  0  0  0  0  0  0  0  0  0  0
    1.3491    3.6280   -1.2006 H   0  0  0  0  0  0  0  0  0  0  0  0
   -0.3568    4.0484   -1.6521 H   0  0  0  0  0  0  0  0  0  0  0  0
    0.9839    5.0499   -2.2503 H   0  0  0  0  0  0  0  0  0  0  0  0
    3.5697    6.9134   -0.6871 H   0  0  0  0  0  0  0  0  0  0  0  0
    2.9621    4.1426    0.4016 H   0  0  0  0  0  0  0  0  0  0  0  0
    4.6277    4.5018    2.1496 H   0  0  0  0  0  0  0  0  0  0  0  0
    3.3773    5.7853    2.2541 H   0  0  0  0  0  0  0  0  0  0  0  0
    4.9714    6.1832    1.5316 H   0  0  0  0  0  0  0  0  0  0  0  0
    6.3302    5.5205   -1.6402 H   0  0  0  0  0  0  0  0  0  0  0  0
    6.6734    4.2700    1.1215 H   0  0  0  0  0  0  0  0  0  0  0  0
    8.7466    5.5929    1.2962 H   0  0  0  0  0  0  0  0  0  0  0  0
    8.4460    6.3325   -0.3271 H   0  0  0  0  0  0  0  0  0  0  0  0
    7.3216    6.6611    1.0474 H   0  0  0  0  0  0  0  0  0  0  0  0
    7.2612    1.9363    0.6560 H   0  0  0  0  0  0  0  0  0  0  0  0
    9.1818    1.0212    1.4421 H   0  0  0  0  0  0  0  0  0  0  0  0
   10.4599    3.7399    0.7503 H   0  0  0  0  0  0  0  0  0  0  0  0
   11.1394    2.5046    1.8572 H   0  0  0  0  0  0  0  0  0  0  0  0
    9.5836    3.3163    2.2740 H   0  0  0  0  0  0  0  0  0  0  0  0
   11.2886   -0.3885   -1.2688 H   0  0  0  0  0  0  0  0  0  0  0  0
    9.7647   -1.2045    1.0582 H   0  0  0  0  0  0  0  0  0  0  0  0
   11.8429   -1.2664    2.6674 H   0  0  0  0  0  0  0  0  0  0  0  0
   12.5348    0.0195    1.6085 H   0  0  0  0  0  0  0  0  0  0  0  0
   10.9948    0.2805    2.5114 H   0  0  0  0  0  0  0  0  0  0  0  0
   11.4029   -4.4446    0.2092 H   0  0  0  0  0  0  0  0  0  0  0  0
    9.2455   -4.8952   -0.1375 H   0  0  0  0  0  0  0  0  0  0  0  0
    9.5338   -2.8358   -1.7834 H   0  0  0  0  0  0  0  0  0  0  0  0
    7.9296   -3.5406   -1.4822 H   0  0  0  0  0  0  0  0  0  0  0  0
    8.4026   -2.0074   -0.6398 H   0  0  0  0  0  0  0  0  0  0  0  0
    6.8469   -3.6691    2.6164 H   0  0  0  0  0  0  0  0  0  0  0  0
    5.5212   -5.1850    1.6364 H   0  0  0  0  0  0  0  0  0  0  0  0
    6.2899   -6.9870    0.4347 H   0  0  0  0  0  0  0  0  0  0  0  0
    7.8121   -6.4573    1.2122 H   0  0  0  0  0  0  0  0  0  0  0  0
    7.4602   -6.0605   -0.5312 H   0  0  0  0  0  0  0  0  0  0  0  0
    5.0337   -4.9156   -2.0987 H   0  0  0  0  0  0  0  0  0  0  0  0
    2.8828   -5.6160   -1.6855 H   0  0  0  0  0  0  0  0  0  0  0  0
    3.7168   -8.4871    0.4906 H   0  0  0  0  0  0  0  0  0  0  0  0
    4.1020   -7.8637   -1.1438 H   0  0  0  0  0  0  0  0  0  0  0  0
    1.5204   -4.2862   -0.1073 H   0  0  0  0  0  0  0  0  0  0  0  0
    2.9950   -3.6617    0.6921 H   0  0  0  0  0  0  0  0  0  0  0  0
    1.5606   -2.7310   -3.6071 H   0  0  0  0  0  0  0  0  0  0  0  0
    1.4030   -4.2893   -2.7656 H   0  0  0  0  0  0  0  0  0  0  0  0
  1  2  1  0
  2  3  2  0
  2  4  1  0
  4  5  1  0
  5  6  1  0
  6  7  1  0
  7  8  1  0
  8  9  1  0
  9 10  1  0
 10 11  2  0
 11 12  1  0
 12 13  2  0
 13 14  1  0
 13 15  1  0
 15 16  1  0
 16 17  1  0
 17 18  1  0
 18 19  1  0
 19 20  1  0
 20 21  2  0
 20 22  1  0
 22 23  1  0
 22 24  1  0
 24 25  1  0
 25 26  2  0
 25 27  1  0
 27 28  1  0
 27 29  1  0
 29 30  1  0
 30 31  2  0
 30 32  1  0
 32 33  1  0
 32 34  1  0
 34 35  1  0
 35 36  2  0
 35 37  1  0
 37 38  1  0
 37 39  1  0
 39 40  1  0
 40 41  2  0
 40 42  1  0
 42 43  1  0
 42 44  1  0
 44 45  1  0
 45 46  2  0
 18 47  1  0
 47 48  2  0
 47 49  1  0
 49 50  1  0
 50 51  1  0
 50 52  1  0
 52 53  2  0
 52 54  1  0
 54 55  1  0
 55 56  1  0
 55 57  1  0
 57 58  2  0
 57 59  1  0
 59 60  1  0
 60 61  1  0
 60 62  1  0
 62 63  2  0
 62 64  1  0
 64 65  1  0
 65 66  1  0
 65 67  1  0
 67 68  2  0
 67 69  1  0
 69 70  1  0
 70 71  1  0
 70 72  1  0
 72 73  2  0
 72 74  1  0
 74 75  1  0
 75 76  1  0
 75 77  1  0
 77 78  2  0
 77 79  1  0
 79 80  1  0
 80 81  1  0
 80 82  1  0
 82 83  2  0
 82 84  1  0
 84 85  1  0
 85 86  1  0
 86 87  1  0
 86 88  2  0
 85 89  1  0
 89 90  1  0
 90 91  1  0
 45  5  1  0
 14  9  2  0
 91 11  1  0
  1 92  1  0
  1 93  1  0
  1 94  1  0
  4 95  1  0
  5 96  1  6
  6 97  1  0
  6 98  1  0
  8 99  1  0
  8100  1  0
 10101  1  0
 12102  1  0
 14103  1  0
 15104  1  0
 15105  1  0
 17106  1  0
 17107  1  0
 18108  1  6
 19109  1  0
 22110  1  1
 23111  1  0
 23112  1  0
 23113  1  0
 24114  1  0
 27115  1  1
 28116  1  0
 28117  1  0
 28118  1  0
 29119  1  0
 32120  1  1
 33121  1  0
 33122  1  0
 33123  1  0
 34124  1  0
 37125  1  6
 38126  1  0
 38127  1  0
 38128  1  0
 39129  1  0
 42130  1  1
 43131  1  0
 43132  1  0
 43133  1  0
 44134  1  0
 49135  1  0
 50136  1  6
 51137  1  0
 51138  1  0
 51139  1  0
 54140  1  0
 55141  1  1
 56142  1  0
 56143  1  0
 56144  1  0
 59145  1  0
 60146  1  1
 61147  1  0
 61148  1  0
 61149  1  0
 64150  1  0
 65151  1  1
 66152  1  0
 66153  1  0
 66154  1  0
 69155  1  0
 70156  1  1
 71157  1  0
 71158  1  0
 71159  1  0
 74160  1  0
 75161  1  6
 76162  1  0
 76163  1  0
 76164  1  0
 79165  1  0
 80166  1  1
 81167  1  0
 81168  1  0
 81169  1  0
 84170  1  0
 85171  1  6
 87172  1  0
 87173  1  0
 89174  1  0
 89175  1  0
 91176  1  0
 91177  1  0
M  END
