
     RDKit          3D

187189  0  0  0  0  0  0  0  0999 V2000
   -7.4020    7.8227   -0.3948 C   0  0  0  0  0  0  0  0  0  0  0  0
   -6.8664    6.5085    0.0662 C   0  0  0  0  0  0  0  0  0  0  0  0
   -6.4471    6.3826    1.2514 O   0  0  0  0  0  0  0  0  0  0  0  0
   -6.8279    5.4010   -0.8388 N   0  0  0  0  0  0  0  0  0  0  0  0
   -6.3677    4.0673   -0.4411 C   0  0  2  0  0  0  0  0  0  0  0  0
   -4.8324    3.9926   -0.3631 C   0  0  0  0  0  0  0  0  0  0  0  0
   -4.0246    4.7936   -1.8010 S   0  0  0  0  0  0  0  0  0  0  0  0
   -2.6517    3.5977   -2.0061 C   0  0  0  0  0  0  0  0  0  0  0  0
   -1.8649    3.3536   -0.7414 C   0  0  0  0  0  0  0  0  0  0  0  0
   -1.4597    2.0470   -0.4156 C   0  0  0  0  0  0  0  0  0  0  0  0
   -0.6742    1.8039    0.7255 C   0  0  0  0  0  0  0  0  0  0  0  0
   -0.3174    2.8858    1.5517 C   0  0  0  0  0  0  0  0  0  0  0  0
   -0.7173    4.1946    1.2368 C   0  0  0  0  0  0  0  0  0  0  0  0
   -1.4677    4.4242    0.0754 C   0  0  0  0  0  0  0  0  0  0  0  0
   -0.3327    5.3495    2.1305 C   0  0  0  0  0  0  0  0  0  0  0  0
    1.4722    5.6401    2.1088 S   0  0  0  0  0  0  0  0  0  0  0  0
    1.5179    6.5390    0.5211 C   0  0  0  0  0  0  0  0  0  0  0  0
    2.9721    6.8089    0.1015 C   0  0  1  0  0  0  0  0  0  0  0  0
    3.0159    7.2639   -1.3320 C   0  0  0  0  0  0  0  0  0  0  0  0
    2.5578    8.5626   -1.7036 N   0  0  0  0  0  0  0  0  0  0  0  0
    3.4681    6.4844   -2.2189 O   0  0  0  0  0  0  0  0  0  0  0  0
    3.5983    7.8014    0.9840 N   0  0  0  0  0  0  0  0  0  0  0  0
    5.0144    8.0850    1.0290 C   0  0  0  0  0  0  0  0  0  0  0  0
    5.4450    8.8881    1.8983 O   0  0  0  0  0  0  0  0  0  0  0  0
    5.9907    7.4994    0.0388 C   0  0  1  0  0  0  0  0  0  0  0  0
    6.5261    8.5832   -0.8967 C   0  0  0  0  0  0  0  0  0  0  0  0
    7.0954    6.8605    0.7503 N   0  0  0  0  0  0  0  0  0  0  0  0
    7.0966    5.4445    0.9521 C   0  0  0  0  0  0  0  0  0  0  0  0
    6.3522    4.9468    1.8398 O   0  0  0  0  0  0  0  0  0  0  0  0
    8.0040    4.5468    0.1466 C   0  0  1  0  0  0  0  0  0  0  0  0
    8.1187    5.0497   -1.2992 C   0  0  0  0  0  0  0  0  0  0  0  0
    9.3295    4.4759    0.7749 N   0  0  0  0  0  0  0  0  0  0  0  0
   10.3039    3.4472    0.5312 C   0  0  0  0  0  0  0  0  0  0  0  0
   11.4317    3.5503    1.0894 O   0  0  0  0  0  0  0  0  0  0  0  0
   10.0448    2.2535   -0.3601 C   0  0  1  0  0  0  0  0  0  0  0  0
   11.0700    2.1761   -1.4985 C   0  0  0  0  0  0  0  0  0  0  0  0
   10.0152    1.0146    0.4240 N   0  0  0  0  0  0  0  0  0  0  0  0
   11.1855    0.2613    0.7454 C   0  0  0  0  0  0  0  0  0  0  0  0
   12.0637    0.7482    1.5141 O   0  0  0  0  0  0  0  0  0  0  0  0
   11.3576   -1.1139    0.1720 C   0  0  1  0  0  0  0  0  0  0  0  0
   12.7441   -1.2882   -0.4516 C   0  0  0  0  0  0  0  0  0  0  0  0
   11.1384   -2.1255    1.2113 N   0  0  0  0  0  0  0  0  0  0  0  0
   10.1000   -3.1184    1.1910 C   0  0  0  0  0  0  0  0  0  0  0  0
   10.2196   -4.1263    1.9482 O   0  0  0  0  0  0  0  0  0  0  0  0
    8.9079   -3.0248    0.2599 C   0  0  1  0  0  0  0  0  0  0  0  0
    9.2150   -3.6747   -1.0971 C   0  0  0  0  0  0  0  0  0  0  0  0
    7.6948   -3.6022    0.8549 N   0  0  0  0  0  0  0  0  0  0  0  0
    7.3900   -5.0043    0.8088 C   0  0  0  0  0  0  0  0  0  0  0  0
    8.2289   -5.8455    1.2305 O   0  0  0  0  0  0  0  0  0  0  0  0
    6.0700   -5.4733    0.2550 C   0  0  1  0  0  0  0  0  0  0  0  0
    6.3194   -6.5767   -0.7826 C   0  0  0  0  0  0  0  0  0  0  0  0
    5.1982   -5.9510    1.3418 N   0  0  0  0  0  0  0  0  0  0  0  0
    3.7737   -6.1599    1.2562 C   0  0  0  0  0  0  0  0  0  0  0  0
    3.1566   -6.4982    2.3034 O   0  0  0  0  0  0  0  0  0  0  0  0
    2.9968   -6.0561   -0.0367 C   0  0  1  0  0  0  0  0  0  0  0  0
    2.7357   -7.4632   -0.6040 C   0  0  0  0  0  0  0  0  0  0  0  0
    1.7550   -5.2949    0.1767 N   0  0  0  0  0  0  0  0  0  0  0  0
    0.5243   -5.8725    0.6421 C   0  0  0  0  0  0  0  0  0  0  0  0
    0.2192   -5.7748    1.8630 O   0  0  0  0  0  0  0  0  0  0  0  0
   -0.4520   -6.4877   -0.3308 C   0  0  1  0  0  0  0  0  0  0  0  0
   -0.8630   -7.8918    0.1295 C   0  0  0  0  0  0  0  0  0  0  0  0
   -1.6607   -5.6664   -0.4847 N   0  0  0  0  0  0  0  0  0  0  0  0
   -1.6258   -4.2500   -0.6996 C   0  0  0  0  0  0  0  0  0  0  0  0
   -1.5315   -3.8184   -1.8829 O   0  0  0  0  0  0  0  0  0  0  0  0
   -1.8631   -3.2929    0.4521 C   0  0  1  0  0  0  0  0  0  0  0  0
   -1.4892   -1.8392    0.0753 C   0  0  0  0  0  0  0  0  0  0  0  0
   -1.4482   -0.7367    1.5445 S   0  0  0  0  0  0  0  0  0  0  0  0
   -0.1342    0.4202    0.9901 C   0  0  0  0  0  0  0  0  0  0  0  0
   -3.2601   -3.3484    0.9456 N   0  0  0  0  0  0  0  0  0  0  0  0
   -4.1816   -4.3964    0.6227 C   0  0  0  0  0  0  0  0  0  0  0  0
   -4.0512   -5.5167    1.1786 O   0  0  0  0  0  0  0  0  0  0  0  0
   -5.3572   -4.1561   -0.2932 C   0  0  1  0  0  0  0  0  0  0  0  0
   -5.1598   -2.9139   -1.1652 C   0  0  0  0  0  0  0  0  0  0  0  0
   -5.5522   -5.3191   -1.1669 N   0  0  0  0  0  0  0  0  0  0  0  0
   -6.7999   -6.0109   -1.3667 C   0  0  0  0  0  0  0  0  0  0  0  0
   -6.7806   -7.1226   -1.9658 O   0  0  0  0  0  0  0  0  0  0  0  0
   -8.1151   -5.4711   -0.8455 C   0  0  1  0  0  0  0  0  0  0  0  0
   -9.3057   -5.9906   -1.6591 C   0  0  0  0  0  0  0  0  0  0  0  0
   -8.2807   -5.8477    0.5617 N   0  0  0  0  0  0  0  0  0  0  0  0
   -8.9141   -5.0429    1.5692 C   0  0  0  0  0  0  0  0  0  0  0  0
   -8.7266   -5.3403    2.7810 O   0  0  0  0  0  0  0  0  0  0  0  0
   -9.8226   -3.8803    1.2388 C   0  0  1  0  0  0  0  0  0  0  0  0
  -11.2405   -4.1665    1.7485 C   0  0  0  0  0  0  0  0  0  0  0  0
   -9.3056   -2.6543    1.8541 N   0  0  0  0  0  0  0  0  0  0  0  0
   -9.4338   -1.3286    1.3070 C   0  0  0  0  0  0  0  0  0  0  0  0
   -8.7212   -0.4153    1.7993 O   0  0  0  0  0  0  0  0  0  0  0  0
  -10.4306   -0.9648    0.2272 C   0  0  1  0  0  0  0  0  0  0  0  0
  -11.6478   -0.2710    0.8662 C   0  0  0  0  0  0  0  0  0  0  0  0
   -9.7611   -0.1324   -0.7882 N   0  0  0  0  0  0  0  0  0  0  0  0
  -10.1434    1.2055   -1.1368 C   0  0  0  0  0  0  0  0  0  0  0  0
  -11.2478    1.4021   -1.7110 O   0  0  0  0  0  0  0  0  0  0  0  0
   -9.2786    2.3871   -0.7767 C   0  0  1  0  0  0  0  0  0  0  0  0
   -9.5915    2.8626    0.6414 C   0  0  0  0  0  0  0  0  0  0  0  0
   -7.8579    2.0625   -0.8960 N   0  0  0  0  0  0  0  0  0  0  0  0
   -6.9135    3.0176   -1.3745 C   0  0  0  0  0  0  0  0  0  0  0  0
   -6.5155    2.9590   -2.5691 O   0  0  0  0  0  0  0  0  0  0  0  0
   -8.4654    7.7037   -0.6991 H   0  0  0  0  0  0  0  0  0  0  0  0
   -6.8070    8.1817   -1.2643 H   0  0  0  0  0  0  0  0  0  0  0  0
   -7.3455    8.5808    0.4195 H   0  0  0  0  0  0  0  0  0  0  0  0
   -7.1358    5.5613   -1.8270 H   0  0  0  0  0  0  0  0  0  0  0  0
   -6.7510    3.8447    0.5773 H   0  0  0  0  0  0  0  0  0  0  0  0
   -4.4806    4.5148    0.5529 H   0  0  0  0  0  0  0  0  0  0  0  0
   -4.5322    2.9257   -0.2693 H   0  0  0  0  0  0  0  0  0  0  0  0
   -1.9621    4.0019   -2.7773 H   0  0  0  0  0  0  0  0  0  0  0  0
   -3.0774    2.6472   -2.3967 H   0  0  0  0  0  0  0  0  0  0  0  0
   -1.7101    1.2242   -1.0768 H   0  0  0  0  0  0  0  0  0  0  0  0
    0.3022    2.7123    2.4274 H   0  0  0  0  0  0  0  0  0  0  0  0
   -1.7453    5.4376   -0.1924 H   0  0  0  0  0  0  0  0  0  0  0  0
   -0.8641    6.2794    1.8421 H   0  0  0  0  0  0  0  0  0  0  0  0
   -0.6369    5.1163    3.1690 H   0  0  0  0  0  0  0  0  0  0  0  0
    1.0181    5.9229   -0.2598 H   0  0  0  0  0  0  0  0  0  0  0  0
    0.9624    7.4996    0.6162 H   0  0  0  0  0  0  0  0  0  0  0  0
    3.5206    5.8373    0.1966 H   0  0  0  0  0  0  0  0  0  0  0  0
    2.1772    9.2245   -0.9868 H   0  0  0  0  0  0  0  0  0  0  0  0
    2.6342    8.8816   -2.7004 H   0  0  0  0  0  0  0  0  0  0  0  0
    2.9969    8.3340    1.6526 H   0  0  0  0  0  0  0  0  0  0  0  0
    5.5018    6.7385   -0.5973 H   0  0  0  0  0  0  0  0  0  0  0  0
    5.6818    9.0921   -1.4066 H   0  0  0  0  0  0  0  0  0  0  0  0
    7.1725    8.1306   -1.6761 H   0  0  0  0  0  0  0  0  0  0  0  0
    7.1094    9.3404   -0.3315 H   0  0  0  0  0  0  0  0  0  0  0  0
    7.8622    7.4355    1.1720 H   0  0  0  0  0  0  0  0  0  0  0  0
    7.5309    3.5392    0.1455 H   0  0  0  0  0  0  0  0  0  0  0  0
    8.7253    4.3531   -1.9124 H   0  0  0  0  0  0  0  0  0  0  0  0
    8.6154    6.0414   -1.3318 H   0  0  0  0  0  0  0  0  0  0  0  0
    7.1120    5.1285   -1.7595 H   0  0  0  0  0  0  0  0  0  0  0  0
    9.6196    5.2623    1.4025 H   0  0  0  0  0  0  0  0  0  0  0  0
    9.0589    2.3414   -0.8536 H   0  0  0  0  0  0  0  0  0  0  0  0
   10.8583    1.2954   -2.1384 H   0  0  0  0  0  0  0  0  0  0  0  0
   11.0052    3.0918   -2.1263 H   0  0  0  0  0  0  0  0  0  0  0  0
   12.1039    2.0930   -1.0987 H   0  0  0  0  0  0  0  0  0  0  0  0
    9.0855    0.5612    0.5899 H   0  0  0  0  0  0  0  0  0  0  0  0
   10.6373   -1.2220   -0.6564 H   0  0  0  0  0  0  0  0  0  0  0  0
   13.5443   -1.1262    0.2981 H   0  0  0  0  0  0  0  0  0  0  0  0
   12.8780   -0.5707   -1.2891 H   0  0  0  0  0  0  0  0  0  0  0  0
   12.8437   -2.3162   -0.8594 H   0  0  0  0  0  0  0  0  0  0  0  0
   11.8398   -2.1784    1.9868 H   0  0  0  0  0  0  0  0  0  0  0  0
    8.6932   -1.9470    0.0779 H   0  0  0  0  0  0  0  0  0  0  0  0
   10.0800   -3.1920   -1.5953 H   0  0  0  0  0  0  0  0  0  0  0  0
    8.3358   -3.5831   -1.7668 H   0  0  0  0  0  0  0  0  0  0  0  0
    9.4606   -4.7504   -0.9726 H   0  0  0  0  0  0  0  0  0  0  0  0
    6.9021   -2.9470    1.0537 H   0  0  0  0  0  0  0  0  0  0  0  0
    5.5908   -4.6072   -0.2483 H   0  0  0  0  0  0  0  0  0  0  0  0
    5.4404   -6.7108   -1.4386 H   0  0  0  0  0  0  0  0  0  0  0  0
    6.5604   -7.5384   -0.2821 H   0  0  0  0  0  0  0  0  0  0  0  0
    7.1666   -6.2964   -1.4487 H   0  0  0  0  0  0  0  0  0  0  0  0
    5.6142   -6.0305    2.3026 H   0  0  0  0  0  0  0  0  0  0  0  0
    3.5845   -5.5052   -0.7904 H   0  0  0  0  0  0  0  0  0  0  0  0
    3.6898   -7.9811   -0.8223 H   0  0  0  0  0  0  0  0  0  0  0  0
    2.1643   -7.3978   -1.5488 H   0  0  0  0  0  0  0  0  0  0  0  0
    2.1933   -8.0866    0.1323 H   0  0  0  0  0  0  0  0  0  0  0  0
    1.8819   -4.2823    0.3946 H   0  0  0  0  0  0  0  0  0  0  0  0
    0.0277   -6.5690   -1.3298 H   0  0  0  0  0  0  0  0  0  0  0  0
   -1.4779   -7.8324    1.0548 H   0  0  0  0  0  0  0  0  0  0  0  0
   -1.4658   -8.3921   -0.6606 H   0  0  0  0  0  0  0  0  0  0  0  0
    0.0206   -8.5272    0.3363 H   0  0  0  0  0  0  0  0  0  0  0  0
   -2.4755   -6.1476   -0.9321 H   0  0  0  0  0  0  0  0  0  0  0  0
   -1.1940   -3.6007    1.2865 H   0  0  0  0  0  0  0  0  0  0  0  0
   -2.2209   -1.4328   -0.6512 H   0  0  0  0  0  0  0  0  0  0  0  0
   -0.4858   -1.8556   -0.4101 H   0  0  0  0  0  0  0  0  0  0  0  0
    0.6276    0.4547    1.7974 H   0  0  0  0  0  0  0  0  0  0  0  0
    0.4041    0.0688    0.0855 H   0  0  0  0  0  0  0  0  0  0  0  0
   -3.5062   -2.7506    1.7727 H   0  0  0  0  0  0  0  0  0  0  0  0
   -6.2438   -3.9895    0.3454 H   0  0  0  0  0  0  0  0  0  0  0  0
   -5.0785   -2.0084   -0.5270 H   0  0  0  0  0  0  0  0  0  0  0  0
   -6.0350   -2.7865   -1.8384 H   0  0  0  0  0  0  0  0  0  0  0  0
   -4.2466   -3.0066   -1.7922 H   0  0  0  0  0  0  0  0  0  0  0  0
   -4.7256   -5.6666   -1.7079 H   0  0  0  0  0  0  0  0  0  0  0  0
   -8.0871   -4.3617   -0.9554 H   0  0  0  0  0  0  0  0  0  0  0  0
  -10.2580   -5.5784   -1.2699 H   0  0  0  0  0  0  0  0  0  0  0  0
   -9.1986   -5.7019   -2.7258 H   0  0  0  0  0  0  0  0  0  0  0  0
   -9.3709   -7.1021   -1.5955 H   0  0  0  0  0  0  0  0  0  0  0  0
   -7.8299   -6.7389    0.8870 H   0  0  0  0  0  0  0  0  0  0  0  0
   -9.8849   -3.7525    0.1477 H   0  0  0  0  0  0  0  0  0  0  0  0
  -11.9001   -3.2953    1.5790 H   0  0  0  0  0  0  0  0  0  0  0  0
  -11.2273   -4.3867    2.8360 H   0  0  0  0  0  0  0  0  0  0  0  0
  -11.6687   -5.0352    1.2087 H   0  0  0  0  0  0  0  0  0  0  0  0
   -8.7774   -2.7382    2.7533 H   0  0  0  0  0  0  0  0  0  0  0  0
  -10.8155   -1.8670   -0.2862 H   0  0  0  0  0  0  0  0  0  0  0  0
  -12.4296   -0.1010    0.0970 H   0  0  0  0  0  0  0  0  0  0  0  0
  -11.3589    0.7005    1.3180 H   0  0  0  0  0  0  0  0  0  0  0  0
  -12.0809   -0.9102    1.6633 H   0  0  0  0  0  0  0  0  0  0  0  0
   -8.9578   -0.5559   -1.3042 H   0  0  0  0  0  0  0  0  0  0  0  0
   -9.5191    3.2186   -1.4761 H   0  0  0  0  0  0  0  0  0  0  0  0
   -9.0706    3.8177    0.8528 H   0  0  0  0  0  0  0  0  0  0  0  0
   -9.2699    2.1098    1.3874 H   0  0  0  0  0  0  0  0  0  0  0  0
  -10.6821    3.0449    0.7517 H   0  0  0  0  0  0  0  0  0  0  0  0
   -7.4960    1.1137   -0.6302 H   0  0  0  0  0  0  0  0  0  0  0  0
  1  2  1  0
  2  3  2  0
  2  4  1  0
  4  5  1  0
  5  6  1  0
  6  7  1  0
  7  8  1  0
  8  9  1  0
  9 10  1  0
 10 11  2  0
 11 12  1  0
 12 13  2  0
 13 14  1  0
 13 15  1  0
 15 16  1  0
 16 17  1  0
 17 18  1  0
 18 19  1  0
 19 20  1  0
 19 21  2  0
 18 22  1  0
 22 23  1  0
 23 24  2  0
 23 25  1  0
 25 26  1  0
 25 27  1  0
 27 28  1  0
 28 29  2  0
 28 30  1  0
 30 31  1  0
 30 32  1  0
 32 33  1  0
 33 34  2  0
 33 35  1  0
 35 36  1  0
 35 37  1  0
 37 38  1  0
 38 39  2  0
 38 40  1  0
 40 41  1  0
 40 42  1  0
 42 43  1  0
 43 44  2  0
 43 45  1  0
 45 46  1  0
 45 47  1  0
 47 48  1  0
 48 49  2  0
 48 50  1  0
 50 51  1  0
 50 52  1  0
 52 53  1  0
 53 54  2  0
 53 55  1  0
 55 56  1  0
 55 57  1  0
 57 58  1  0
 58 59  2  0
 58 60  1  0
 60 61  1  0
 60 62  1  0
 62 63  1  0
 63 64  2  0
 63 65  1  0
 65 66  1  0
 66 67  1  0
 67 68  1  0
 65 69  1  0
 69 70  1  0
 70 71  2  0
 70 72  1  0
 72 73  1  0
 72 74  1  0
 74 75  1  0
 75 76  2  0
 75 77  1  0
 77 78  1  0
 77 79  1  0
 79 80  1  0
 80 81  2  0
 80 82  1  0
 82 83  1  0
 82 84  1  0
 84 85  1  0
 85 86  2  0
 85 87  1  0
 87 88  1  0
 87 89  1  0
 89 90  1  0
 90 91  2  0
 90 92  1  0
 92 93  1  0
 92 94  1  0
 94 95  1  0
 95 96  2  0
 95  5  1  0
 14  9  2  0
 68 11  1  0
  1 97  1  0
  1 98  1  0
  1 99  1  0
  4100  1  0
  5101  1  1
  6102  1  0
  6103  1  0
  8104  1  0
  8105  1  0
 10106  1  0
 12107  1  0
 14108  1  0
 15109  1  0
 15110  1  0
 17111  1  0
 17112  1  0
 18113  1  6
 20114  1  0
 20115  1  0
 22116  1  0
 25117  1  6
 26118  1  0
 26119  1  0
 26120  1  0
 27121  1  0
 30122  1  6
 31123  1  0
 31124  1  0
 31125  1  0
 32126  1  0
 35127  1  6
 36128  1  0
 36129  1  0
 36130  1  0
 37131  1  0
 40132  1  6
 41133  1  0
 41134  1  0
 41135  1  0
 42136  1  0
 45137  1  6
 46138  1  0
 46139  1  0
 46140  1  0
 47141  1  0
 50142  1  6
 51143  1  0
 51144  1  0
 51145  1  0
 52146  1  0
 55147  1  6
 56148  1  0
 56149  1  0
 56150  1  0
 57151  1  0
 60152  1  6
 61153  1  0
 61154  1  0
 61155  1  0
 62156  1  0
 65157  1  1
 66158  1  0
 66159  1  0
 68160  1  0
 68161  1  0
 69162  1  0
 72163  1  1
 73164  1  0
 73165  1  0
 73166  1  0
 74167  1  0
 77168  1  1
 78169  1  0
 78170  1  0
 78171  1  0
 79172  1  0
 82173  1  6
 83174  1  0
 83175  1  0
 83176  1  0
 84177  1  0
 87178  1  6
 88179  1  0
 88180  1  0
 88181  1  0
 89182  1  0
 92183  1  6
 93184  1  0
 93185  1  0
 93186  1  0
 94187  1  0
M  END
