
     RDKit          3D

137139  0  0  0  0  0  0  0  0999 V2000
    4.5926    8.7866   -0.5033 C   0  0  0  0  0  0  0  0  0  0  0  0
    4.3073    7.3421   -0.7659 C   0  0  0  0  0  0  0  0  0  0  0  0
    4.1627    6.9525   -1.9561 O   0  0  0  0  0  0  0  0  0  0  0  0
    4.2072    6.4090    0.3219 N   0  0  0  0  0  0  0  0  0  0  0  0
    4.0916    4.9612    0.0968 C   0  0  2  0  0  0  0  0  0  0  0  0
    2.6686    4.5782   -0.3429 C   0  0  0  0  0  0  0  0  0  0  0  0
    1.3841    5.2541    0.7855 S   0  0  0  0  0  0  0  0  0  0  0  0
    0.6268    3.6519    1.2422 C   0  0  0  0  0  0  0  0  0  0  0  0
   -0.1012    3.0472    0.0675 C   0  0  0  0  0  0  0  0  0  0  0  0
   -1.1323    3.7618   -0.5623 C   0  0  0  0  0  0  0  0  0  0  0  0
   -1.7340    3.2595   -1.7258 C   0  0  0  0  0  0  0  0  0  0  0  0
   -1.3202    2.0194   -2.2370 C   0  0  0  0  0  0  0  0  0  0  0  0
   -0.3434    1.2589   -1.5708 C   0  0  0  0  0  0  0  0  0  0  0  0
    0.2803    1.7953   -0.4337 C   0  0  0  0  0  0  0  0  0  0  0  0
    0.0801   -0.0819   -2.1061 C   0  0  0  0  0  0  0  0  0  0  0  0
   -1.3523   -1.1710   -2.4404 S   0  0  0  0  0  0  0  0  0  0  0  0
   -1.8382   -1.4597   -0.6940 C   0  0  0  0  0  0  0  0  0  0  0  0
   -1.5014   -2.8821   -0.2210 C   0  0  2  0  0  0  0  0  0  0  0  0
   -0.0495   -3.1138   -0.2722 N   0  0  0  0  0  0  0  0  0  0  0  0
    0.5252   -4.3833   -0.6068 C   0  0  0  0  0  0  0  0  0  0  0  0
    0.6669   -4.6965   -1.8205 O   0  0  0  0  0  0  0  0  0  0  0  0
    0.9167   -5.3477    0.4831 C   0  0  1  0  0  0  0  0  0  0  0  0
   -0.3376   -5.9433    1.1319 C   0  0  0  0  0  0  0  0  0  0  0  0
    1.7466   -6.4260   -0.0660 N   0  0  0  0  0  0  0  0  0  0  0  0
    3.1546   -6.3249   -0.3417 C   0  0  0  0  0  0  0  0  0  0  0  0
    3.6937   -7.2387   -1.0252 O   0  0  0  0  0  0  0  0  0  0  0  0
    4.0313   -5.2429    0.2628 C   0  0  1  0  0  0  0  0  0  0  0  0
    4.5549   -5.7559    1.6081 C   0  0  0  0  0  0  0  0  0  0  0  0
    5.1491   -4.9001   -0.6316 N   0  0  0  0  0  0  0  0  0  0  0  0
    6.0098   -3.7500   -0.5095 C   0  0  0  0  0  0  0  0  0  0  0  0
    6.9682   -3.6403   -1.3140 O   0  0  0  0  0  0  0  0  0  0  0  0
    5.8433   -2.6925    0.5733 C   0  0  1  0  0  0  0  0  0  0  0  0
    7.0665   -2.6868    1.5003 C   0  0  0  0  0  0  0  0  0  0  0  0
    5.6129   -1.3522    0.0173 N   0  0  0  0  0  0  0  0  0  0  0  0
    6.5738   -0.6349   -0.7726 C   0  0  0  0  0  0  0  0  0  0  0  0
    6.9050   -1.0672   -1.9090 O   0  0  0  0  0  0  0  0  0  0  0  0
    7.1643    0.6573   -0.2637 C   0  0  1  0  0  0  0  0  0  0  0  0
    8.6911    0.5450   -0.2060 C   0  0  0  0  0  0  0  0  0  0  0  0
    6.7672    1.7723   -1.1338 N   0  0  0  0  0  0  0  0  0  0  0  0
    6.9054    3.1572   -0.7708 C   0  0  0  0  0  0  0  0  0  0  0  0
    6.9698    4.0167   -1.6928 O   0  0  0  0  0  0  0  0  0  0  0  0
    6.9569    3.6021    0.6774 C   0  0  1  0  0  0  0  0  0  0  0  0
    7.4130    5.0600    0.8515 C   0  0  0  0  0  0  0  0  0  0  0  0
    5.6775    3.3467    1.3573 N   0  0  0  0  0  0  0  0  0  0  0  0
    4.5141    4.1940    1.3337 C   0  0  0  0  0  0  0  0  0  0  0  0
    3.8150    4.2832    2.3809 O   0  0  0  0  0  0  0  0  0  0  0  0
   -2.2981   -3.9164   -0.9965 C   0  0  0  0  0  0  0  0  0  0  0  0
   -2.0357   -4.1362   -2.2086 O   0  0  0  0  0  0  0  0  0  0  0  0
   -3.3369   -4.6801   -0.3702 N   0  0  0  0  0  0  0  0  0  0  0  0
   -4.3552   -4.0678    0.4911 C   0  0  2  0  0  0  0  0  0  0  0  0
   -4.7962   -5.0674    1.5627 C   0  0  0  0  0  0  0  0  0  0  0  0
   -5.5018   -3.5811   -0.3598 C   0  0  0  0  0  0  0  0  0  0  0  0
   -5.2737   -2.7886   -1.3161 O   0  0  0  0  0  0  0  0  0  0  0  0
   -6.8492   -3.9428   -0.0614 N   0  0  0  0  0  0  0  0  0  0  0  0
   -7.7878   -2.9380    0.4336 C   0  0  2  0  0  0  0  0  0  0  0  0
   -8.9368   -3.6154    1.1804 C   0  0  0  0  0  0  0  0  0  0  0  0
   -8.3162   -2.1187   -0.7219 C   0  0  0  0  0  0  0  0  0  0  0  0
   -8.8200   -2.7138   -1.7136 O   0  0  0  0  0  0  0  0  0  0  0  0
   -8.2112   -0.6873   -0.7534 N   0  0  0  0  0  0  0  0  0  0  0  0
   -8.2479    0.1638    0.4385 C   0  0  2  0  0  0  0  0  0  0  0  0
   -9.4470    1.1069    0.3586 C   0  0  0  0  0  0  0  0  0  0  0  0
   -6.9712    0.9485    0.5668 C   0  0  0  0  0  0  0  0  0  0  0  0
   -6.2532    0.8135    1.5948 O   0  0  0  0  0  0  0  0  0  0  0  0
   -6.5897    1.8744   -0.4628 N   0  0  0  0  0  0  0  0  0  0  0  0
   -6.1941    3.2760   -0.2227 C   0  0  1  0  0  0  0  0  0  0  0  0
   -6.5065    3.7244    1.1889 C   0  0  0  0  0  0  0  0  0  0  0  0
   -7.8143    4.1943    1.5195 N   0  0  0  0  0  0  0  0  0  0  0  0
   -5.6297    3.6492    2.0937 O   0  0  0  0  0  0  0  0  0  0  0  0
   -4.7109    3.4869   -0.5691 C   0  0  0  0  0  0  0  0  0  0  0  0
   -4.4174    3.1995   -2.3545 S   0  0  0  0  0  0  0  0  0  0  0  0
   -2.8024    4.0507   -2.4289 C   0  0  0  0  0  0  0  0  0  0  0  0
    5.5337    9.0715   -1.0168 H   0  0  0  0  0  0  0  0  0  0  0  0
    4.7071    8.9820    0.5848 H   0  0  0  0  0  0  0  0  0  0  0  0
    3.7596    9.4107   -0.8938 H   0  0  0  0  0  0  0  0  0  0  0  0
    4.3569    6.7633    1.2935 H   0  0  0  0  0  0  0  0  0  0  0  0
    4.7606    4.6821   -0.7340 H   0  0  0  0  0  0  0  0  0  0  0  0
    2.6078    3.4767   -0.4496 H   0  0  0  0  0  0  0  0  0  0  0  0
    2.4752    5.0024   -1.3460 H   0  0  0  0  0  0  0  0  0  0  0  0
   -0.0972    3.8176    2.0660 H   0  0  0  0  0  0  0  0  0  0  0  0
    1.4126    2.9712    1.6244 H   0  0  0  0  0  0  0  0  0  0  0  0
   -1.4451    4.7174   -0.1613 H   0  0  0  0  0  0  0  0  0  0  0  0
   -1.7827    1.6319   -3.1398 H   0  0  0  0  0  0  0  0  0  0  0  0
    1.0683    1.2355    0.0533 H   0  0  0  0  0  0  0  0  0  0  0  0
    0.7716   -0.5952   -1.4015 H   0  0  0  0  0  0  0  0  0  0  0  0
    0.6298    0.0753   -3.0565 H   0  0  0  0  0  0  0  0  0  0  0  0
   -2.9347   -1.3008   -0.6141 H   0  0  0  0  0  0  0  0  0  0  0  0
   -1.3627   -0.7292   -0.0071 H   0  0  0  0  0  0  0  0  0  0  0  0
   -1.7892   -2.9468    0.8479 H   0  0  0  0  0  0  0  0  0  0  0  0
    0.5356   -2.4886    0.3215 H   0  0  0  0  0  0  0  0  0  0  0  0
    1.4646   -4.8064    1.2824 H   0  0  0  0  0  0  0  0  0  0  0  0
   -0.0444   -6.6847    1.9054 H   0  0  0  0  0  0  0  0  0  0  0  0
   -0.9733   -6.4506    0.3747 H   0  0  0  0  0  0  0  0  0  0  0  0
   -0.9356   -5.1463    1.6260 H   0  0  0  0  0  0  0  0  0  0  0  0
    1.2538   -7.2623   -0.4557 H   0  0  0  0  0  0  0  0  0  0  0  0
    3.4233   -4.3290    0.4147 H   0  0  0  0  0  0  0  0  0  0  0  0
    5.1800   -6.6634    1.4601 H   0  0  0  0  0  0  0  0  0  0  0  0
    5.1697   -4.9937    2.1273 H   0  0  0  0  0  0  0  0  0  0  0  0
    3.7034   -6.0155    2.2804 H   0  0  0  0  0  0  0  0  0  0  0  0
    5.3667   -5.5364   -1.4308 H   0  0  0  0  0  0  0  0  0  0  0  0
    4.9708   -2.9317    1.2080 H   0  0  0  0  0  0  0  0  0  0  0  0
    6.9387   -1.9147    2.2852 H   0  0  0  0  0  0  0  0  0  0  0  0
    7.1842   -3.6754    1.9883 H   0  0  0  0  0  0  0  0  0  0  0  0
    7.9937   -2.4662    0.9282 H   0  0  0  0  0  0  0  0  0  0  0  0
    4.8715   -0.7760    0.4795 H   0  0  0  0  0  0  0  0  0  0  0  0
    6.7778    0.8300    0.7619 H   0  0  0  0  0  0  0  0  0  0  0  0
    9.1424    1.4774    0.1904 H   0  0  0  0  0  0  0  0  0  0  0  0
    8.9892   -0.2886    0.4606 H   0  0  0  0  0  0  0  0  0  0  0  0
    9.1096    0.3643   -1.2193 H   0  0  0  0  0  0  0  0  0  0  0  0
    6.5592    1.5688   -2.1390 H   0  0  0  0  0  0  0  0  0  0  0  0
    7.7335    2.9915    1.1850 H   0  0  0  0  0  0  0  0  0  0  0  0
    8.4552    5.1738    0.4829 H   0  0  0  0  0  0  0  0  0  0  0  0
    7.3898    5.3387    1.9262 H   0  0  0  0  0  0  0  0  0  0  0  0
    6.7727    5.7629    0.2877 H   0  0  0  0  0  0  0  0  0  0  0  0
    5.6874    2.6020    2.0945 H   0  0  0  0  0  0  0  0  0  0  0  0
   -3.5853   -5.5933   -0.8184 H   0  0  0  0  0  0  0  0  0  0  0  0
   -3.9459   -3.1798    1.0152 H   0  0  0  0  0  0  0  0  0  0  0  0
   -5.5258   -4.5959    2.2545 H   0  0  0  0  0  0  0  0  0  0  0  0
   -5.2588   -5.9628    1.0983 H   0  0  0  0  0  0  0  0  0  0  0  0
   -3.9156   -5.3900    2.1569 H   0  0  0  0  0  0  0  0  0  0  0  0
   -7.2048   -4.8766   -0.3955 H   0  0  0  0  0  0  0  0  0  0  0  0
   -7.2431   -2.2941    1.1552 H   0  0  0  0  0  0  0  0  0  0  0  0
   -8.5296   -4.2354    2.0056 H   0  0  0  0  0  0  0  0  0  0  0  0
   -9.6141   -2.8485    1.6126 H   0  0  0  0  0  0  0  0  0  0  0  0
   -9.5193   -4.2680    0.4953 H   0  0  0  0  0  0  0  0  0  0  0  0
   -8.2659   -0.2246   -1.6898 H   0  0  0  0  0  0  0  0  0  0  0  0
   -8.3918   -0.4481    1.3545 H   0  0  0  0  0  0  0  0  0  0  0  0
  -10.3864    0.5198    0.2762 H   0  0  0  0  0  0  0  0  0  0  0  0
   -9.5062    1.7281    1.2816 H   0  0  0  0  0  0  0  0  0  0  0  0
   -9.3662    1.7765   -0.5225 H   0  0  0  0  0  0  0  0  0  0  0  0
   -6.6947    1.5733   -1.4635 H   0  0  0  0  0  0  0  0  0  0  0  0
   -6.7874    3.9232   -0.9074 H   0  0  0  0  0  0  0  0  0  0  0  0
   -8.0373    4.4773    2.4973 H   0  0  0  0  0  0  0  0  0  0  0  0
   -8.5595    4.2473    0.7895 H   0  0  0  0  0  0  0  0  0  0  0  0
   -4.0752    2.7949    0.0219 H   0  0  0  0  0  0  0  0  0  0  0  0
   -4.4360    4.5335   -0.3137 H   0  0  0  0  0  0  0  0  0  0  0  0
   -2.9047    5.0658   -1.9965 H   0  0  0  0  0  0  0  0  0  0  0  0
   -2.5191    4.1768   -3.4931 H   0  0  0  0  0  0  0  0  0  0  0  0
  1  2  1  0
  2  3  2  0
  2  4  1  0
  4  5  1  0
  5  6  1  0
  6  7  1  0
  7  8  1  0
  8  9  1  0
  9 10  1  0
 10 11  2  0
 11 12  1  0
 12 13  2  0
 13 14  1  0
 13 15  1  0
 15 16  1  0
 16 17  1  0
 17 18  1  0
 18 19  1  0
 19 20  1  0
 20 21  2  0
 20 22  1  0
 22 23  1  0
 22 24  1  0
 24 25  1  0
 25 26  2  0
 25 27  1  0
 27 28  1  0
 27 29  1  0
 29 30  1  0
 30 31  2  0
 30 32  1  0
 32 33  1  0
 32 34  1  0
 34 35  1  0
 35 36  2  0
 35 37  1  0
 37 38  1  0
 37 39  1  0
 39 40  1  0
 40 41  2  0
 40 42  1  0
 42 43  1  0
 42 44  1  0
 44 45  1  0
 45 46  2  0
 18 47  1  0
 47 48  2  0
 47 49  1  0
 49 50  1  0
 50 51  1  0
 50 52  1  0
 52 53  2  0
 52 54  1  0
 54 55  1  0
 55 56  1  0
 55 57  1  0
 57 58  2  0
 57 59  1  0
 59 60  1  0
 60 61  1  0
 60 62  1  0
 62 63  2  0
 62 64  1  0
 64 65  1  0
 65 66  1  0
 66 67  1  0
 66 68  2  0
 65 69  1  0
 69 70  1  0
 70 71  1  0
 45  5  1  0
 14  9  2  0
 71 11  1  0
  1 72  1  0
  1 73  1  0
  1 74  1  0
  4 75  1  0
  5 76  1  6
  6 77  1  0
  6 78  1  0
  8 79  1  0
  8 80  1  0
 10 81  1  0
 12 82  1  0
 14 83  1  0
 15 84  1  0
 15 85  1  0
 17 86  1  0
 17 87  1  0
 18 88  1  1
 19 89  1  0
 22 90  1  1
 23 91  1  0
 23 92  1  0
 23 93  1  0
 24 94  1  0
 27 95  1  1
 28 96  1  0
 28 97  1  0
 28 98  1  0
 29 99  1  0
 32100  1  1
 33101  1  0
 33102  1  0
 33103  1  0
 34104  1  0
 37105  1  1
 38106  1  0
 38107  1  0
 38108  1  0
 39109  1  0
 42110  1  1
 43111  1  0
 43112  1  0
 43113  1  0
 44114  1  0
 49115  1  0
 50116  1  1
 51117  1  0
 51118  1  0
 51119  1  0
 54120  1  0
 55121  1  1
 56122  1  0
 56123  1  0
 56124  1  0
 59125  1  0
 60126  1  1
 61127  1  0
 61128  1  0
 61129  1  0
 64130  1  0
 65131  1  6
 67132  1  0
 67133  1  0
 69134  1  0
 69135  1  0
 71136  1  0
 71137  1  0
M  END
