
     RDKit          3D

137139  0  0  0  0  0  0  0  0999 V2000
   -5.7159    7.7623   -2.1099 C   0  0  0  0  0  0  0  0  0  0  0  0
   -4.8050    6.5932   -2.3222 C   0  0  0  0  0  0  0  0  0  0  0  0
   -4.1947    6.4860   -3.4243 O   0  0  0  0  0  0  0  0  0  0  0  0
   -4.6136    5.6181   -1.2858 N   0  0  0  0  0  0  0  0  0  0  0  0
   -3.7233    4.4680   -1.4568 C   0  0  1  0  0  0  0  0  0  0  0  0
   -2.2390    4.8965   -1.2872 C   0  0  0  0  0  0  0  0  0  0  0  0
   -1.9534    6.1272    0.0525 S   0  0  0  0  0  0  0  0  0  0  0  0
   -1.6678    4.9888    1.4587 C   0  0  0  0  0  0  0  0  0  0  0  0
   -0.4079    4.1843    1.2824 C   0  0  0  0  0  0  0  0  0  0  0  0
    0.8429    4.8230    1.1899 C   0  0  0  0  0  0  0  0  0  0  0  0
    2.0170    4.0665    1.0389 C   0  0  0  0  0  0  0  0  0  0  0  0
    1.9251    2.6717    0.8655 C   0  0  0  0  0  0  0  0  0  0  0  0
    0.6697    2.0323    0.8832 C   0  0  0  0  0  0  0  0  0  0  0  0
   -0.4681    2.7874    1.1885 C   0  0  0  0  0  0  0  0  0  0  0  0
    0.4579    0.5817    0.5031 C   0  0  0  0  0  0  0  0  0  0  0  0
    1.9617   -0.2977   -0.0803 S   0  0  0  0  0  0  0  0  0  0  0  0
    2.2765   -1.2735    1.4355 C   0  0  0  0  0  0  0  0  0  0  0  0
    2.0753   -2.7773    1.1555 C   0  0  2  0  0  0  0  0  0  0  0  0
    0.6423   -3.1044    1.0672 N   0  0  0  0  0  0  0  0  0  0  0  0
    0.1611   -4.4278    0.7727 C   0  0  0  0  0  0  0  0  0  0  0  0
    0.7797   -5.4336    1.2176 O   0  0  0  0  0  0  0  0  0  0  0  0
   -1.1189   -4.6058   -0.0184 C   0  0  1  0  0  0  0  0  0  0  0  0
   -0.9273   -4.0563   -1.4336 C   0  0  0  0  0  0  0  0  0  0  0  0
   -1.4846   -6.0245   -0.1050 N   0  0  0  0  0  0  0  0  0  0  0  0
   -2.7641   -6.5358    0.2846 C   0  0  0  0  0  0  0  0  0  0  0  0
   -2.8113   -7.5576    1.0214 O   0  0  0  0  0  0  0  0  0  0  0  0
   -4.0479   -5.9626   -0.2736 C   0  0  1  0  0  0  0  0  0  0  0  0
   -4.6698   -6.9814   -1.2358 C   0  0  0  0  0  0  0  0  0  0  0  0
   -4.9877   -5.6549    0.8117 N   0  0  0  0  0  0  0  0  0  0  0  0
   -6.1979   -4.9069    0.6243 C   0  0  0  0  0  0  0  0  0  0  0  0
   -7.2419   -5.3008    1.2169 O   0  0  0  0  0  0  0  0  0  0  0  0
   -6.2533   -3.6509   -0.2231 C   0  0  1  0  0  0  0  0  0  0  0  0
   -6.8779   -3.9593   -1.5932 C   0  0  0  0  0  0  0  0  0  0  0  0
   -7.0308   -2.6075    0.4532 N   0  0  0  0  0  0  0  0  0  0  0  0
   -7.0657   -1.2179    0.0585 C   0  0  0  0  0  0  0  0  0  0  0  0
   -7.9781   -0.4887    0.5264 O   0  0  0  0  0  0  0  0  0  0  0  0
   -6.0317   -0.6011   -0.8617 C   0  0  1  0  0  0  0  0  0  0  0  0
   -6.6661    0.3390   -1.8942 C   0  0  0  0  0  0  0  0  0  0  0  0
   -4.9862    0.0769   -0.0884 N   0  0  0  0  0  0  0  0  0  0  0  0
   -5.2339    0.9559    1.0215 C   0  0  0  0  0  0  0  0  0  0  0  0
   -4.7638    0.6398    2.1511 O   0  0  0  0  0  0  0  0  0  0  0  0
   -5.9899    2.2605    0.8515 C   0  0  1  0  0  0  0  0  0  0  0  0
   -5.9060    3.1367    2.1090 C   0  0  0  0  0  0  0  0  0  0  0  0
   -5.5150    3.0192   -0.3151 N   0  0  0  0  0  0  0  0  0  0  0  0
   -4.1276    3.3212   -0.5565 C   0  0  0  0  0  0  0  0  0  0  0  0
   -3.2468    2.5390   -0.1251 O   0  0  0  0  0  0  0  0  0  0  0  0
    2.7725   -3.5906    2.2106 C   0  0  0  0  0  0  0  0  0  0  0  0
    2.4672   -3.4513    3.4257 O   0  0  0  0  0  0  0  0  0  0  0  0
    3.7579   -4.5599    1.8288 N   0  0  0  0  0  0  0  0  0  0  0  0
    5.1927   -4.4350    2.1195 C   0  0  2  0  0  0  0  0  0  0  0  0
    5.4633   -4.2294    3.6164 C   0  0  0  0  0  0  0  0  0  0  0  0
    5.7981   -3.3214    1.3032 C   0  0  0  0  0  0  0  0  0  0  0  0
    5.5778   -2.1202    1.6206 O   0  0  0  0  0  0  0  0  0  0  0  0
    6.6105   -3.6254    0.1590 N   0  0  0  0  0  0  0  0  0  0  0  0
    7.6188   -2.7166   -0.4080 C   0  0  2  0  0  0  0  0  0  0  0  0
    8.6121   -2.2517    0.6590 C   0  0  0  0  0  0  0  0  0  0  0  0
    6.9753   -1.5879   -1.1840 C   0  0  0  0  0  0  0  0  0  0  0  0
    6.9771   -1.6378   -2.4437 O   0  0  0  0  0  0  0  0  0  0  0  0
    6.2752   -0.5159   -0.5412 N   0  0  0  0  0  0  0  0  0  0  0  0
    6.9756    0.6468    0.0082 C   0  0  2  0  0  0  0  0  0  0  0  0
    6.1922    1.2077    1.1955 C   0  0  0  0  0  0  0  0  0  0  0  0
    7.1844    1.6843   -1.0652 C   0  0  0  0  0  0  0  0  0  0  0  0
    8.3458    1.8959   -1.5028 O   0  0  0  0  0  0  0  0  0  0  0  0
    6.0835    2.4097   -1.6207 N   0  0  0  0  0  0  0  0  0  0  0  0
    5.7768    3.7571   -1.1439 C   0  0  1  0  0  0  0  0  0  0  0  0
    6.6849    4.7547   -1.8162 C   0  0  0  0  0  0  0  0  0  0  0  0
    7.6006    5.5374   -1.0474 N   0  0  0  0  0  0  0  0  0  0  0  0
    6.6571    4.8888   -3.0707 O   0  0  0  0  0  0  0  0  0  0  0  0
    4.2972    4.0777   -1.4107 C   0  0  0  0  0  0  0  0  0  0  0  0
    3.7536    5.5703   -0.4947 S   0  0  0  0  0  0  0  0  0  0  0  0
    3.3523    4.7455    1.0965 C   0  0  0  0  0  0  0  0  0  0  0  0
   -6.5020    7.7659   -2.8947 H   0  0  0  0  0  0  0  0  0  0  0  0
   -6.2094    7.7072   -1.1152 H   0  0  0  0  0  0  0  0  0  0  0  0
   -5.1326    8.7047   -2.1745 H   0  0  0  0  0  0  0  0  0  0  0  0
   -5.1518    5.7234   -0.3940 H   0  0  0  0  0  0  0  0  0  0  0  0
   -3.8467    4.0760   -2.4876 H   0  0  0  0  0  0  0  0  0  0  0  0
   -1.9203    5.3965   -2.2258 H   0  0  0  0  0  0  0  0  0  0  0  0
   -1.5652    4.0173   -1.1828 H   0  0  0  0  0  0  0  0  0  0  0  0
   -2.5534    4.3328    1.5732 H   0  0  0  0  0  0  0  0  0  0  0  0
   -1.5760    5.6000    2.3844 H   0  0  0  0  0  0  0  0  0  0  0  0
    0.8995    5.9011    1.2895 H   0  0  0  0  0  0  0  0  0  0  0  0
    2.8327    2.0976    0.7449 H   0  0  0  0  0  0  0  0  0  0  0  0
   -1.4079    2.2793    1.3287 H   0  0  0  0  0  0  0  0  0  0  0  0
   -0.0532    0.0457    1.3249 H   0  0  0  0  0  0  0  0  0  0  0  0
   -0.2496    0.5633   -0.3581 H   0  0  0  0  0  0  0  0  0  0  0  0
    3.3304   -1.0760    1.7225 H   0  0  0  0  0  0  0  0  0  0  0  0
    1.6580   -0.9555    2.2999 H   0  0  0  0  0  0  0  0  0  0  0  0
    2.5451   -3.0144    0.1795 H   0  0  0  0  0  0  0  0  0  0  0  0
   -0.0336   -2.3247    0.9243 H   0  0  0  0  0  0  0  0  0  0  0  0
   -1.9333   -4.0339    0.4827 H   0  0  0  0  0  0  0  0  0  0  0  0
   -0.7597   -2.9577   -1.4036 H   0  0  0  0  0  0  0  0  0  0  0  0
   -1.8348   -4.2524   -2.0458 H   0  0  0  0  0  0  0  0  0  0  0  0
   -0.0591   -4.5469   -1.9232 H   0  0  0  0  0  0  0  0  0  0  0  0
   -0.7443   -6.7207   -0.3571 H   0  0  0  0  0  0  0  0  0  0  0  0
   -3.8208   -5.0347   -0.8411 H   0  0  0  0  0  0  0  0  0  0  0  0
   -3.9926   -7.1431   -2.1063 H   0  0  0  0  0  0  0  0  0  0  0  0
   -5.6465   -6.6308   -1.6181 H   0  0  0  0  0  0  0  0  0  0  0  0
   -4.8377   -7.9563   -0.7294 H   0  0  0  0  0  0  0  0  0  0  0  0
   -4.9232   -6.2110    1.6958 H   0  0  0  0  0  0  0  0  0  0  0  0
   -5.2132   -3.2894   -0.3601 H   0  0  0  0  0  0  0  0  0  0  0  0
   -7.8177   -4.5397   -1.4736 H   0  0  0  0  0  0  0  0  0  0  0  0
   -7.1179   -3.0228   -2.1382 H   0  0  0  0  0  0  0  0  0  0  0  0
   -6.1674   -4.5273   -2.2229 H   0  0  0  0  0  0  0  0  0  0  0  0
   -7.6860   -2.8800    1.2224 H   0  0  0  0  0  0  0  0  0  0  0  0
   -5.5379   -1.3920   -1.4589 H   0  0  0  0  0  0  0  0  0  0  0  0
   -7.3348   -0.2426   -2.5629 H   0  0  0  0  0  0  0  0  0  0  0  0
   -7.2631    1.1373   -1.4113 H   0  0  0  0  0  0  0  0  0  0  0  0
   -5.8754    0.8131   -2.5131 H   0  0  0  0  0  0  0  0  0  0  0  0
   -3.9977   -0.2101   -0.2553 H   0  0  0  0  0  0  0  0  0  0  0  0
   -7.0642    2.0216    0.7006 H   0  0  0  0  0  0  0  0  0  0  0  0
   -6.4235    2.6342    2.9494 H   0  0  0  0  0  0  0  0  0  0  0  0
   -4.8439    3.3124    2.3994 H   0  0  0  0  0  0  0  0  0  0  0  0
   -6.3880    4.1243    1.9199 H   0  0  0  0  0  0  0  0  0  0  0  0
   -6.2395    3.5433   -0.8611 H   0  0  0  0  0  0  0  0  0  0  0  0
    3.4608   -5.3342    1.1854 H   0  0  0  0  0  0  0  0  0  0  0  0
    5.6867   -5.3891    1.8245 H   0  0  0  0  0  0  0  0  0  0  0  0
    5.1171   -3.2271    3.9529 H   0  0  0  0  0  0  0  0  0  0  0  0
    4.9389   -5.0077    4.2141 H   0  0  0  0  0  0  0  0  0  0  0  0
    6.5549   -4.3038    3.8127 H   0  0  0  0  0  0  0  0  0  0  0  0
    6.5627   -4.5940   -0.2394 H   0  0  0  0  0  0  0  0  0  0  0  0
    8.2119   -3.3063   -1.1400 H   0  0  0  0  0  0  0  0  0  0  0  0
    9.4157   -1.6356    0.1974 H   0  0  0  0  0  0  0  0  0  0  0  0
    8.1164   -1.6778    1.4653 H   0  0  0  0  0  0  0  0  0  0  0  0
    9.0962   -3.1397    1.1244 H   0  0  0  0  0  0  0  0  0  0  0  0
    5.2840   -0.3709   -0.8443 H   0  0  0  0  0  0  0  0  0  0  0  0
    7.9725    0.3441    0.3818 H   0  0  0  0  0  0  0  0  0  0  0  0
    6.7286    2.0796    1.6269 H   0  0  0  0  0  0  0  0  0  0  0  0
    6.0927    0.4341    1.9800 H   0  0  0  0  0  0  0  0  0  0  0  0
    5.1759    1.5220    0.8785 H   0  0  0  0  0  0  0  0  0  0  0  0
    5.8335    2.1824   -2.6125 H   0  0  0  0  0  0  0  0  0  0  0  0
    5.9515    3.7936   -0.0477 H   0  0  0  0  0  0  0  0  0  0  0  0
    8.2414    6.2173   -1.5133 H   0  0  0  0  0  0  0  0  0  0  0  0
    7.6227    5.4718   -0.0059 H   0  0  0  0  0  0  0  0  0  0  0  0
    4.1362    4.2495   -2.4959 H   0  0  0  0  0  0  0  0  0  0  0  0
    3.6745    3.2040   -1.1335 H   0  0  0  0  0  0  0  0  0  0  0  0
    3.3296    5.5343    1.8800 H   0  0  0  0  0  0  0  0  0  0  0  0
    4.1549    4.0362    1.3900 H   0  0  0  0  0  0  0  0  0  0  0  0
  1  2  1  0
  2  3  2  0
  2  4  1  0
  4  5  1  0
  5  6  1  0
  6  7  1  0
  7  8  1  0
  8  9  1  0
  9 10  1  0
 10 11  2  0
 11 12  1  0
 12 13  2  0
 13 14  1  0
 13 15  1  0
 15 16  1  0
 16 17  1  0
 17 18  1  0
 18 19  1  0
 19 20  1  0
 20 21  2  0
 20 22  1  0
 22 23  1  0
 22 24  1  0
 24 25  1  0
 25 26  2  0
 25 27  1  0
 27 28  1  0
 27 29  1  0
 29 30  1  0
 30 31  2  0
 30 32  1  0
 32 33  1  0
 32 34  1  0
 34 35  1  0
 35 36  2  0
 35 37  1  0
 37 38  1  0
 37 39  1  0
 39 40  1  0
 40 41  2  0
 40 42  1  0
 42 43  1  0
 42 44  1  0
 44 45  1  0
 45 46  2  0
 18 47  1  0
 47 48  2  0
 47 49  1  0
 49 50  1  0
 50 51  1  0
 50 52  1  0
 52 53  2  0
 52 54  1  0
 54 55  1  0
 55 56  1  0
 55 57  1  0
 57 58  2  0
 57 59  1  0
 59 60  1  0
 60 61  1  0
 60 62  1  0
 62 63  2  0
 62 64  1  0
 64 65  1  0
 65 66  1  0
 66 67  1  0
 66 68  2  0
 65 69  1  0
 69 70  1  0
 70 71  1  0
 45  5  1  0
 14  9  2  0
 71 11  1  0
  1 72  1  0
  1 73  1  0
  1 74  1  0
  4 75  1  0
  5 76  1  6
  6 77  1  0
  6 78  1  0
  8 79  1  0
  8 80  1  0
 10 81  1  0
 12 82  1  0
 14 83  1  0
 15 84  1  0
 15 85  1  0
 17 86  1  0
 17 87  1  0
 18 88  1  6
 19 89  1  0
 22 90  1  1
 23 91  1  0
 23 92  1  0
 23 93  1  0
 24 94  1  0
 27 95  1  6
 28 96  1  0
 28 97  1  0
 28 98  1  0
 29 99  1  0
 32100  1  6
 33101  1  0
 33102  1  0
 33103  1  0
 34104  1  0
 37105  1  6
 38106  1  0
 38107  1  0
 38108  1  0
 39109  1  0
 42110  1  6
 43111  1  0
 43112  1  0
 43113  1  0
 44114  1  0
 49115  1  0
 50116  1  6
 51117  1  0
 51118  1  0
 51119  1  0
 54120  1  0
 55121  1  6
 56122  1  0
 56123  1  0
 56124  1  0
 59125  1  0
 60126  1  1
 61127  1  0
 61128  1  0
 61129  1  0
 64130  1  0
 65131  1  1
 67132  1  0
 67133  1  0
 69134  1  0
 69135  1  0
 71136  1  0
 71137  1  0
M  END
