
     RDKit          3D

197199  0  0  0  0  0  0  0  0999 V2000
   -8.5451    5.0425    1.2584 C   0  0  0  0  0  0  0  0  0  0  0  0
   -8.2048    3.7247    1.8888 C   0  0  0  0  0  0  0  0  0  0  0  0
   -8.3438    3.5997    3.1325 O   0  0  0  0  0  0  0  0  0  0  0  0
   -7.7081    2.6132    1.1272 N   0  0  0  0  0  0  0  0  0  0  0  0
   -7.6201    2.5653   -0.3362 C   0  0  1  0  0  0  0  0  0  0  0  0
   -6.1484    2.6315   -0.7956 C   0  0  0  0  0  0  0  0  0  0  0  0
   -5.4163    4.2899   -0.5304 S   0  0  0  0  0  0  0  0  0  0  0  0
   -4.6175    3.9525    1.0748 C   0  0  0  0  0  0  0  0  0  0  0  0
   -3.1977    3.5110    0.8565 C   0  0  0  0  0  0  0  0  0  0  0  0
   -2.2068    4.4580    0.5562 C   0  0  0  0  0  0  0  0  0  0  0  0
   -0.8718    4.0593    0.3926 C   0  0  0  0  0  0  0  0  0  0  0  0
   -0.5362    2.7008    0.5041 C   0  0  0  0  0  0  0  0  0  0  0  0
   -1.5306    1.7404    0.7373 C   0  0  0  0  0  0  0  0  0  0  0  0
   -2.8507    2.1562    0.9544 C   0  0  0  0  0  0  0  0  0  0  0  0
   -1.1914    0.2804    0.6441 C   0  0  0  0  0  0  0  0  0  0  0  0
   -1.0617   -0.2141   -1.1100 S   0  0  0  0  0  0  0  0  0  0  0  0
   -2.8382   -0.5782   -1.3684 C   0  0  0  0  0  0  0  0  0  0  0  0
   -3.2019   -2.0299   -0.9918 C   0  0  1  0  0  0  0  0  0  0  0  0
   -4.6614   -2.1465   -0.8920 N   0  0  0  0  0  0  0  0  0  0  0  0
   -5.3703   -2.5753    0.2826 C   0  0  0  0  0  0  0  0  0  0  0  0
   -6.5315   -2.1291    0.4782 O   0  0  0  0  0  0  0  0  0  0  0  0
   -4.7934   -3.5927    1.2440 C   0  0  1  0  0  0  0  0  0  0  0  0
   -5.6777   -3.8172    2.4831 C   0  0  0  0  0  0  0  0  0  0  0  0
   -4.5383   -4.8684    0.5618 N   0  0  0  0  0  0  0  0  0  0  0  0
   -5.5702   -5.7611    0.1176 C   0  0  0  0  0  0  0  0  0  0  0  0
   -5.6594   -6.9054    0.6437 O   0  0  0  0  0  0  0  0  0  0  0  0
   -6.5713   -5.3399   -0.9327 C   0  0  1  0  0  0  0  0  0  0  0  0
   -6.8614   -6.4866   -1.9046 C   0  0  0  0  0  0  0  0  0  0  0  0
   -7.8147   -4.9104   -0.2895 N   0  0  0  0  0  0  0  0  0  0  0  0
   -8.6533   -3.8770   -0.8415 C   0  0  0  0  0  0  0  0  0  0  0  0
   -8.2712   -3.2204   -1.8450 O   0  0  0  0  0  0  0  0  0  0  0  0
   -9.9501   -3.4985   -0.1656 C   0  0  1  0  0  0  0  0  0  0  0  0
  -10.8647   -4.7170    0.0037 C   0  0  0  0  0  0  0  0  0  0  0  0
   -9.6616   -2.9020    1.1443 N   0  0  0  0  0  0  0  0  0  0  0  0
  -10.0431   -1.5819    1.5834 C   0  0  0  0  0  0  0  0  0  0  0  0
   -9.7473   -1.2419    2.7628 O   0  0  0  0  0  0  0  0  0  0  0  0
  -10.8554   -0.6273    0.7253 C   0  0  1  0  0  0  0  0  0  0  0  0
  -12.3341   -1.0148    0.7665 C   0  0  0  0  0  0  0  0  0  0  0  0
  -10.7077    0.7549    1.1929 N   0  0  0  0  0  0  0  0  0  0  0  0
  -10.8487    1.9148    0.3498 C   0  0  0  0  0  0  0  0  0  0  0  0
  -11.1042    3.0251    0.8942 O   0  0  0  0  0  0  0  0  0  0  0  0
  -10.7337    1.8268   -1.1648 C   0  0  1  0  0  0  0  0  0  0  0  0
  -10.9916    3.1657   -1.8675 C   0  0  0  0  0  0  0  0  0  0  0  0
   -9.4443    1.2724   -1.6055 N   0  0  0  0  0  0  0  0  0  0  0  0
   -8.2411    1.2833   -0.8292 C   0  0  0  0  0  0  0  0  0  0  0  0
   -7.6586    0.1919   -0.6002 O   0  0  0  0  0  0  0  0  0  0  0  0
   -2.6951   -3.0015   -2.0339 C   0  0  0  0  0  0  0  0  0  0  0  0
   -3.1961   -2.9694   -3.1901 O   0  0  0  0  0  0  0  0  0  0  0  0
   -1.7125   -4.0078   -1.7326 N   0  0  0  0  0  0  0  0  0  0  0  0
   -0.5274   -3.7614   -0.9083 C   0  0  2  0  0  0  0  0  0  0  0  0
    0.6740   -3.4353   -1.8002 C   0  0  0  0  0  0  0  0  0  0  0  0
   -0.3005   -4.9263    0.0244 C   0  0  0  0  0  0  0  0  0  0  0  0
   -1.1020   -5.0984    0.9771 O   0  0  0  0  0  0  0  0  0  0  0  0
    0.8479   -5.7747   -0.0661 N   0  0  0  0  0  0  0  0  0  0  0  0
    1.0388   -6.7172   -1.1694 C   0  0  2  0  0  0  0  0  0  0  0  0
    0.5695   -8.1053   -0.7345 C   0  0  0  0  0  0  0  0  0  0  0  0
    2.4898   -6.7431   -1.5858 C   0  0  0  0  0  0  0  0  0  0  0  0
    2.8760   -7.5555   -2.4712 O   0  0  0  0  0  0  0  0  0  0  0  0
    3.4197   -5.8021   -1.0405 N   0  0  0  0  0  0  0  0  0  0  0  0
    4.5047   -6.1470   -0.1144 C   0  0  2  0  0  0  0  0  0  0  0  0
    4.2559   -7.4860    0.6012 C   0  0  0  0  0  0  0  0  0  0  0  0
    4.6550   -5.0473    0.9177 C   0  0  0  0  0  0  0  0  0  0  0  0
    3.6510   -4.3422    1.2061 O   0  0  0  0  0  0  0  0  0  0  0  0
    5.8901   -4.7819    1.6077 N   0  0  0  0  0  0  0  0  0  0  0  0
    7.1206   -5.5745    1.5099 C   0  0  2  0  0  0  0  0  0  0  0  0
    7.4388   -6.1596    2.8904 C   0  0  0  0  0  0  0  0  0  0  0  0
    8.2868   -4.7390    1.0044 C   0  0  0  0  0  0  0  0  0  0  0  0
    9.4143   -5.2967    0.9158 O   0  0  0  0  0  0  0  0  0  0  0  0
    8.1240   -3.3692    0.5797 N   0  0  0  0  0  0  0  0  0  0  0  0
    9.1857   -2.5300   -0.0015 C   0  0  2  0  0  0  0  0  0  0  0  0
    9.7990   -3.1858   -1.2460 C   0  0  0  0  0  0  0  0  0  0  0  0
   10.2479   -2.1755    1.0175 C   0  0  0  0  0  0  0  0  0  0  0  0
   10.5584   -3.0184    1.9027 O   0  0  0  0  0  0  0  0  0  0  0  0
   10.9417   -0.9168    1.0103 N   0  0  0  0  0  0  0  0  0  0  0  0
   10.9463    0.0567   -0.0908 C   0  0  2  0  0  0  0  0  0  0  0  0
   12.3934    0.2406   -0.5684 C   0  0  0  0  0  0  0  0  0  0  0  0
   10.3055    1.3398    0.3897 C   0  0  0  0  0  0  0  0  0  0  0  0
    9.1936    1.2807    0.9817 O   0  0  0  0  0  0  0  0  0  0  0  0
   10.9331    2.6154    0.2169 N   0  0  0  0  0  0  0  0  0  0  0  0
   11.0040    3.2544   -1.0995 C   0  0  2  0  0  0  0  0  0  0  0  0
   12.3867    3.9001   -1.2707 C   0  0  0  0  0  0  0  0  0  0  0  0
    9.8456    4.2166   -1.2513 C   0  0  0  0  0  0  0  0  0  0  0  0
    8.6853    3.7298   -1.3650 O   0  0  0  0  0  0  0  0  0  0  0  0
   10.0139    5.6413   -1.2503 N   0  0  0  0  0  0  0  0  0  0  0  0
    8.9070    6.5526   -1.5613 C   0  0  2  0  0  0  0  0  0  0  0  0
    9.4343    7.9636   -1.8410 C   0  0  0  0  0  0  0  0  0  0  0  0
    7.9248    6.5977   -0.4235 C   0  0  0  0  0  0  0  0  0  0  0  0
    8.3245    6.8290    0.7525 O   0  0  0  0  0  0  0  0  0  0  0  0
    6.5237    6.4255   -0.6857 N   0  0  0  0  0  0  0  0  0  0  0  0
    5.4912    7.3381   -0.1749 C   0  0  2  0  0  0  0  0  0  0  0  0
    5.9261    8.7984   -0.3515 C   0  0  0  0  0  0  0  0  0  0  0  0
    5.1262    7.0384    1.2562 C   0  0  0  0  0  0  0  0  0  0  0  0
    5.6105    6.0402    1.8578 O   0  0  0  0  0  0  0  0  0  0  0  0
    4.1995    7.8934    1.9426 N   0  0  0  0  0  0  0  0  0  0  0  0
    2.7686    7.6036    2.1238 C   0  0  1  0  0  0  0  0  0  0  0  0
    1.9863    8.8542    1.8028 C   0  0  0  0  0  0  0  0  0  0  0  0
    2.0844    9.4566    0.5069 N   0  0  0  0  0  0  0  0  0  0  0  0
    1.2616    9.3911    2.6842 O   0  0  0  0  0  0  0  0  0  0  0  0
    2.2744    6.4237    1.2572 C   0  0  0  0  0  0  0  0  0  0  0  0
    0.5541    5.9784    1.6985 S   0  0  0  0  0  0  0  0  0  0  0  0
    0.1940    5.0819    0.1417 C   0  0  0  0  0  0  0  0  0  0  0  0
   -9.3547    4.9177    0.5151 H   0  0  0  0  0  0  0  0  0  0  0  0
   -7.6531    5.4747    0.7644 H   0  0  0  0  0  0  0  0  0  0  0  0
   -8.8951    5.7635    2.0293 H   0  0  0  0  0  0  0  0  0  0  0  0
   -7.3717    1.7787    1.6638 H   0  0  0  0  0  0  0  0  0  0  0  0
   -8.1633    3.4137   -0.7914 H   0  0  0  0  0  0  0  0  0  0  0  0
   -6.1054    2.4306   -1.8884 H   0  0  0  0  0  0  0  0  0  0  0  0
   -5.5458    1.8446   -0.3006 H   0  0  0  0  0  0  0  0  0  0  0  0
   -4.6341    4.8801    1.6849 H   0  0  0  0  0  0  0  0  0  0  0  0
   -5.1821    3.1952    1.6531 H   0  0  0  0  0  0  0  0  0  0  0  0
   -2.4681    5.5013    0.4621 H   0  0  0  0  0  0  0  0  0  0  0  0
    0.4926    2.3866    0.3949 H   0  0  0  0  0  0  0  0  0  0  0  0
   -3.6130    1.4215    1.1903 H   0  0  0  0  0  0  0  0  0  0  0  0
   -0.2115    0.0952    1.1337 H   0  0  0  0  0  0  0  0  0  0  0  0
   -1.9361   -0.3412    1.1826 H   0  0  0  0  0  0  0  0  0  0  0  0
   -3.4573    0.1233   -0.7790 H   0  0  0  0  0  0  0  0  0  0  0  0
   -3.0840   -0.3844   -2.4333 H   0  0  0  0  0  0  0  0  0  0  0  0
   -2.7489   -2.2548   -0.0104 H   0  0  0  0  0  0  0  0  0  0  0  0
   -5.2304   -1.7718   -1.6860 H   0  0  0  0  0  0  0  0  0  0  0  0
   -3.8315   -3.2013    1.6298 H   0  0  0  0  0  0  0  0  0  0  0  0
   -5.2062   -4.5627    3.1548 H   0  0  0  0  0  0  0  0  0  0  0  0
   -5.7897   -2.8657    3.0461 H   0  0  0  0  0  0  0  0  0  0  0  0
   -6.6875   -4.1814    2.1996 H   0  0  0  0  0  0  0  0  0  0  0  0
   -3.5884   -5.2768    0.6724 H   0  0  0  0  0  0  0  0  0  0  0  0
   -6.1292   -4.5113   -1.5196 H   0  0  0  0  0  0  0  0  0  0  0  0
   -7.5496   -6.1379   -2.6995 H   0  0  0  0  0  0  0  0  0  0  0  0
   -5.9207   -6.8399   -2.3799 H   0  0  0  0  0  0  0  0  0  0  0  0
   -7.3405   -7.3403   -1.3759 H   0  0  0  0  0  0  0  0  0  0  0  0
   -8.1346   -5.4170    0.5640 H   0  0  0  0  0  0  0  0  0  0  0  0
  -10.4831   -2.7889   -0.8235 H   0  0  0  0  0  0  0  0  0  0  0  0
  -10.4403   -5.4452    0.7239 H   0  0  0  0  0  0  0  0  0  0  0  0
  -11.0157   -5.2178   -0.9738 H   0  0  0  0  0  0  0  0  0  0  0  0
  -11.8527   -4.3901    0.3870 H   0  0  0  0  0  0  0  0  0  0  0  0
   -9.1410   -3.4901    1.8347 H   0  0  0  0  0  0  0  0  0  0  0  0
  -10.4884   -0.6959   -0.3138 H   0  0  0  0  0  0  0  0  0  0  0  0
  -12.6972   -1.0663    1.8149 H   0  0  0  0  0  0  0  0  0  0  0  0
  -12.4947   -2.0000    0.2784 H   0  0  0  0  0  0  0  0  0  0  0  0
  -12.9422   -0.2663    0.2146 H   0  0  0  0  0  0  0  0  0  0  0  0
  -10.7621    0.9359    2.2221 H   0  0  0  0  0  0  0  0  0  0  0  0
  -11.5415    1.1396   -1.5031 H   0  0  0  0  0  0  0  0  0  0  0  0
  -11.9898    3.5642   -1.5856 H   0  0  0  0  0  0  0  0  0  0  0  0
  -10.2260    3.9172   -1.6041 H   0  0  0  0  0  0  0  0  0  0  0  0
  -10.9689    3.0246   -2.9683 H   0  0  0  0  0  0  0  0  0  0  0  0
   -9.4900    0.5656   -2.3763 H   0  0  0  0  0  0  0  0  0  0  0  0
   -1.6888   -4.8491   -2.3560 H   0  0  0  0  0  0  0  0  0  0  0  0
   -0.6778   -2.8775   -0.2610 H   0  0  0  0  0  0  0  0  0  0  0  0
    0.8766   -4.2464   -2.5310 H   0  0  0  0  0  0  0  0  0  0  0  0
    0.4671   -2.5076   -2.3804 H   0  0  0  0  0  0  0  0  0  0  0  0
    1.5782   -3.2608   -1.1805 H   0  0  0  0  0  0  0  0  0  0  0  0
    1.3430   -5.9819    0.8286 H   0  0  0  0  0  0  0  0  0  0  0  0
    0.4312   -6.4137   -2.0496 H   0  0  0  0  0  0  0  0  0  0  0  0
   -0.4966   -8.0568   -0.4218 H   0  0  0  0  0  0  0  0  0  0  0  0
    1.1745   -8.4709    0.1221 H   0  0  0  0  0  0  0  0  0  0  0  0
    0.6510   -8.8271   -1.5741 H   0  0  0  0  0  0  0  0  0  0  0  0
    3.4430   -4.8578   -1.4840 H   0  0  0  0  0  0  0  0  0  0  0  0
    5.4361   -6.2221   -0.7136 H   0  0  0  0  0  0  0  0  0  0  0  0
    4.2183   -8.3175   -0.1369 H   0  0  0  0  0  0  0  0  0  0  0  0
    5.0818   -7.7114    1.3118 H   0  0  0  0  0  0  0  0  0  0  0  0
    3.3042   -7.4582    1.1719 H   0  0  0  0  0  0  0  0  0  0  0  0
    5.8868   -3.9950    2.2959 H   0  0  0  0  0  0  0  0  0  0  0  0
    7.0013   -6.4242    0.8087 H   0  0  0  0  0  0  0  0  0  0  0  0
    6.6002   -6.8057    3.2255 H   0  0  0  0  0  0  0  0  0  0  0  0
    8.3580   -6.7794    2.8547 H   0  0  0  0  0  0  0  0  0  0  0  0
    7.5766   -5.3461    3.6323 H   0  0  0  0  0  0  0  0  0  0  0  0
    7.1647   -2.9625    0.5688 H   0  0  0  0  0  0  0  0  0  0  0  0
    8.6947   -1.5867   -0.3321 H   0  0  0  0  0  0  0  0  0  0  0  0
    8.9901   -3.5420   -1.9178 H   0  0  0  0  0  0  0  0  0  0  0  0
   10.4226   -2.4574   -1.8043 H   0  0  0  0  0  0  0  0  0  0  0  0
   10.4454   -4.0458   -0.9709 H   0  0  0  0  0  0  0  0  0  0  0  0
   11.5442   -0.7039    1.8359 H   0  0  0  0  0  0  0  0  0  0  0  0
   10.3622   -0.3066   -0.9552 H   0  0  0  0  0  0  0  0  0  0  0  0
   12.4251    0.8057   -1.5194 H   0  0  0  0  0  0  0  0  0  0  0  0
   12.8524   -0.7518   -0.7590 H   0  0  0  0  0  0  0  0  0  0  0  0
   12.9969    0.7675    0.2031 H   0  0  0  0  0  0  0  0  0  0  0  0
   11.0013    3.2316    1.0578 H   0  0  0  0  0  0  0  0  0  0  0  0
   10.8991    2.4920   -1.8985 H   0  0  0  0  0  0  0  0  0  0  0  0
   12.5772    4.6469   -0.4678 H   0  0  0  0  0  0  0  0  0  0  0  0
   13.1763    3.1255   -1.2067 H   0  0  0  0  0  0  0  0  0  0  0  0
   12.4619    4.3878   -2.2636 H   0  0  0  0  0  0  0  0  0  0  0  0
   10.9852    6.0397   -1.3159 H   0  0  0  0  0  0  0  0  0  0  0  0
    8.3927    6.2034   -2.4831 H   0  0  0  0  0  0  0  0  0  0  0  0
    8.5934    8.6627   -2.0405 H   0  0  0  0  0  0  0  0  0  0  0  0
   10.0257    8.3392   -0.9780 H   0  0  0  0  0  0  0  0  0  0  0  0
   10.0947    7.9489   -2.7373 H   0  0  0  0  0  0  0  0  0  0  0  0
    6.2385    5.7301   -1.4190 H   0  0  0  0  0  0  0  0  0  0  0  0
    4.5680    7.1936   -0.7787 H   0  0  0  0  0  0  0  0  0  0  0  0
    6.1984    8.9825   -1.4124 H   0  0  0  0  0  0  0  0  0  0  0  0
    5.0942    9.4888   -0.0926 H   0  0  0  0  0  0  0  0  0  0  0  0
    6.7968    9.0342    0.2955 H   0  0  0  0  0  0  0  0  0  0  0  0
    4.5879    8.7695    2.3521 H   0  0  0  0  0  0  0  0  0  0  0  0
    2.6141    7.3394    3.1897 H   0  0  0  0  0  0  0  0  0  0  0  0
    1.7070   10.4200    0.3432 H   0  0  0  0  0  0  0  0  0  0  0  0
    2.6778    9.0159   -0.2359 H   0  0  0  0  0  0  0  0  0  0  0  0
    2.3403    6.6867    0.1765 H   0  0  0  0  0  0  0  0  0  0  0  0
    2.9055    5.5311    1.4358 H   0  0  0  0  0  0  0  0  0  0  0  0
    1.1141    4.5833   -0.2456 H   0  0  0  0  0  0  0  0  0  0  0  0
   -0.1424    5.8149   -0.6251 H   0  0  0  0  0  0  0  0  0  0  0  0
  1  2  1  0
  2  3  2  0
  2  4  1  0
  4  5  1  0
  5  6  1  0
  6  7  1  0
  7  8  1  0
  8  9  1  0
  9 10  1  0
 10 11  2  0
 11 12  1  0
 12 13  2  0
 13 14  1  0
 13 15  1  0
 15 16  1  0
 16 17  1  0
 17 18  1  0
 18 19  1  0
 19 20  1  0
 20 21  2  0
 20 22  1  0
 22 23  1  0
 22 24  1  0
 24 25  1  0
 25 26  2  0
 25 27  1  0
 27 28  1  0
 27 29  1  0
 29 30  1  0
 30 31  2  0
 30 32  1  0
 32 33  1  0
 32 34  1  0
 34 35  1  0
 35 36  2  0
 35 37  1  0
 37 38  1  0
 37 39  1  0
 39 40  1  0
 40 41  2  0
 40 42  1  0
 42 43  1  0
 42 44  1  0
 44 45  1  0
 45 46  2  0
 18 47  1  0
 47 48  2  0
 47 49  1  0
 49 50  1  0
 50 51  1  0
 50 52  1  0
 52 53  2  0
 52 54  1  0
 54 55  1  0
 55 56  1  0
 55 57  1  0
 57 58  2  0
 57 59  1  0
 59 60  1  0
 60 61  1  0
 60 62  1  0
 62 63  2  0
 62 64  1  0
 64 65  1  0
 65 66  1  0
 65 67  1  0
 67 68  2  0
 67 69  1  0
 69 70  1  0
 70 71  1  0
 70 72  1  0
 72 73  2  0
 72 74  1  0
 74 75  1  0
 75 76  1  0
 75 77  1  0
 77 78  2  0
 77 79  1  0
 79 80  1  0
 80 81  1  0
 80 82  1  0
 82 83  2  0
 82 84  1  0
 84 85  1  0
 85 86  1  0
 85 87  1  0
 87 88  2  0
 87 89  1  0
 89 90  1  0
 90 91  1  0
 90 92  1  0
 92 93  2  0
 92 94  1  0
 94 95  1  0
 95 96  1  0
 96 97  1  0
 96 98  2  0
 95 99  1  0
 99100  1  0
100101  1  0
 45  5  1  0
 14  9  2  0
101 11  1  0
  1102  1  0
  1103  1  0
  1104  1  0
  4105  1  0
  5106  1  6
  6107  1  0
  6108  1  0
  8109  1  0
  8110  1  0
 10111  1  0
 12112  1  0
 14113  1  0
 15114  1  0
 15115  1  0
 17116  1  0
 17117  1  0
 18118  1  1
 19119  1  0
 22120  1  1
 23121  1  0
 23122  1  0
 23123  1  0
 24124  1  0
 27125  1  6
 28126  1  0
 28127  1  0
 28128  1  0
 29129  1  0
 32130  1  6
 33131  1  0
 33132  1  0
 33133  1  0
 34134  1  0
 37135  1  6
 38136  1  0
 38137  1  0
 38138  1  0
 39139  1  0
 42140  1  6
 43141  1  0
 43142  1  0
 43143  1  0
 44144  1  0
 49145  1  0
 50146  1  1
 51147  1  0
 51148  1  0
 51149  1  0
 54150  1  0
 55151  1  6
 56152  1  0
 56153  1  0
 56154  1  0
 59155  1  0
 60156  1  6
 61157  1  0
 61158  1  0
 61159  1  0
 64160  1  0
 65161  1  6
 66162  1  0
 66163  1  0
 66164  1  0
 69165  1  0
 70166  1  6
 71167  1  0
 71168  1  0
 71169  1  0
 74170  1  0
 75171  1  6
 76172  1  0
 76173  1  0
 76174  1  0
 79175  1  0
 80176  1  6
 81177  1  0
 81178  1  0
 81179  1  0
 84180  1  0
 85181  1  6
 86182  1  0
 86183  1  0
 86184  1  0
 89185  1  0
 90186  1  6
 91187  1  0
 91188  1  0
 91189  1  0
 94190  1  0
 95191  1  1
 97192  1  0
 97193  1  0
 99194  1  0
 99195  1  0
101196  1  0
101197  1  0
M  END
