
     RDKit          3D

207209  0  0  0  0  0  0  0  0999 V2000
    9.3829   -5.8959   -2.2279 C   0  0  0  0  0  0  0  0  0  0  0  0
    8.4857   -4.7046   -2.3724 C   0  0  0  0  0  0  0  0  0  0  0  0
    8.0108   -4.4275   -3.5146 O   0  0  0  0  0  0  0  0  0  0  0  0
    8.1927   -3.8392   -1.2671 N   0  0  0  0  0  0  0  0  0  0  0  0
    7.8136   -4.2842    0.0787 C   0  0  1  0  0  0  0  0  0  0  0  0
    6.4955   -5.0822    0.0220 C   0  0  0  0  0  0  0  0  0  0  0  0
    5.9883   -5.7664    1.6462 S   0  0  0  0  0  0  0  0  0  0  0  0
    5.3777   -4.2216    2.4243 C   0  0  0  0  0  0  0  0  0  0  0  0
    4.1041   -3.7103    1.7993 C   0  0  0  0  0  0  0  0  0  0  0  0
    3.0392   -4.5843    1.5369 C   0  0  0  0  0  0  0  0  0  0  0  0
    1.8273   -4.1003    1.0323 C   0  0  0  0  0  0  0  0  0  0  0  0
    1.6656   -2.7262    0.8154 C   0  0  0  0  0  0  0  0  0  0  0  0
    2.7010   -1.8316    1.1333 C   0  0  0  0  0  0  0  0  0  0  0  0
    3.9262   -2.3332    1.5883 C   0  0  0  0  0  0  0  0  0  0  0  0
    2.4632   -0.3478    1.0713 C   0  0  0  0  0  0  0  0  0  0  0  0
    3.3150    0.3878   -0.3682 S   0  0  0  0  0  0  0  0  0  0  0  0
    2.5158    2.0288   -0.2290 C   0  0  0  0  0  0  0  0  0  0  0  0
    3.4798    3.0856    0.3357 C   0  0  1  0  0  0  0  0  0  0  0  0
    4.3340    3.6380   -0.7376 N   0  0  0  0  0  0  0  0  0  0  0  0
    5.2997    4.7038   -0.5991 C   0  0  0  0  0  0  0  0  0  0  0  0
    5.6964    5.2723   -1.6496 O   0  0  0  0  0  0  0  0  0  0  0  0
    5.8042    5.1902    0.7477 C   0  0  1  0  0  0  0  0  0  0  0  0
    6.6564    4.1416    1.4852 C   0  0  0  0  0  0  0  0  0  0  0  0
    6.4967    6.4854    0.6382 N   0  0  0  0  0  0  0  0  0  0  0  0
    7.7843    6.7686    0.0550 C   0  0  0  0  0  0  0  0  0  0  0  0
    8.2460    7.9393    0.1876 O   0  0  0  0  0  0  0  0  0  0  0  0
    8.6244    5.7503   -0.6837 C   0  0  1  0  0  0  0  0  0  0  0  0
    8.8726    6.2235   -2.1220 C   0  0  0  0  0  0  0  0  0  0  0  0
    9.9015    5.5885    0.0134 N   0  0  0  0  0  0  0  0  0  0  0  0
   10.1648    4.4608    0.8525 C   0  0  0  0  0  0  0  0  0  0  0  0
    9.9526    4.5631    2.0913 O   0  0  0  0  0  0  0  0  0  0  0  0
   10.6552    3.1510    0.2682 C   0  0  1  0  0  0  0  0  0  0  0  0
   11.4749    3.3937   -1.0045 C   0  0  0  0  0  0  0  0  0  0  0  0
   11.4750    2.4247    1.2541 N   0  0  0  0  0  0  0  0  0  0  0  0
   11.8967    1.0524    1.1411 C   0  0  0  0  0  0  0  0  0  0  0  0
   12.7533    0.6204    1.9629 O   0  0  0  0  0  0  0  0  0  0  0  0
   11.3325    0.1009    0.1104 C   0  0  1  0  0  0  0  0  0  0  0  0
   12.4525   -0.5059   -0.7443 C   0  0  0  0  0  0  0  0  0  0  0  0
   10.5318   -0.9412    0.7647 N   0  0  0  0  0  0  0  0  0  0  0  0
   11.1021   -2.1280    1.3266 C   0  0  0  0  0  0  0  0  0  0  0  0
   11.7240   -2.0692    2.4219 O   0  0  0  0  0  0  0  0  0  0  0  0
   10.9203   -3.4457    0.6256 C   0  0  1  0  0  0  0  0  0  0  0  0
   12.2614   -4.1601    0.4436 C   0  0  0  0  0  0  0  0  0  0  0  0
   10.0142   -4.2951    1.3929 N   0  0  0  0  0  0  0  0  0  0  0  0
    8.9441   -5.0172    0.7757 C   0  0  0  0  0  0  0  0  0  0  0  0
    8.9050   -6.2713    0.9149 O   0  0  0  0  0  0  0  0  0  0  0  0
    2.6858    4.1766    1.0077 C   0  0  0  0  0  0  0  0  0  0  0  0
    2.7152    4.2889    2.2678 O   0  0  0  0  0  0  0  0  0  0  0  0
    1.9320    5.1165    0.2348 N   0  0  0  0  0  0  0  0  0  0  0  0
    0.5345    4.8625   -0.1042 C   0  0  2  0  0  0  0  0  0  0  0  0
    0.2855    5.2417   -1.5696 C   0  0  0  0  0  0  0  0  0  0  0  0
   -0.3554    5.6104    0.8470 C   0  0  0  0  0  0  0  0  0  0  0  0
   -0.8049    5.0326    1.8724 O   0  0  0  0  0  0  0  0  0  0  0  0
   -0.6678    6.9898    0.6268 N   0  0  0  0  0  0  0  0  0  0  0  0
   -1.9533    7.3746    0.0473 C   0  0  2  0  0  0  0  0  0  0  0  0
   -1.7532    8.5691   -0.8790 C   0  0  0  0  0  0  0  0  0  0  0  0
   -2.9583    7.7025    1.1394 C   0  0  0  0  0  0  0  0  0  0  0  0
   -2.5294    7.9824    2.2941 O   0  0  0  0  0  0  0  0  0  0  0  0
   -4.3759    7.7251    0.9146 N   0  0  0  0  0  0  0  0  0  0  0  0
   -5.0410    7.5377   -0.3798 C   0  0  2  0  0  0  0  0  0  0  0  0
   -5.5305    8.9024   -0.8891 C   0  0  0  0  0  0  0  0  0  0  0  0
   -6.1557    6.5263   -0.2184 C   0  0  0  0  0  0  0  0  0  0  0  0
   -5.8973    5.4184    0.3290 O   0  0  0  0  0  0  0  0  0  0  0  0
   -7.4780    6.7671   -0.7284 N   0  0  0  0  0  0  0  0  0  0  0  0
   -8.7036    6.7073    0.0786 C   0  0  2  0  0  0  0  0  0  0  0  0
   -9.0510    8.1097    0.5901 C   0  0  0  0  0  0  0  0  0  0  0  0
   -8.6119    5.7326    1.2398 C   0  0  0  0  0  0  0  0  0  0  0  0
   -7.9572    6.0576    2.2647 O   0  0  0  0  0  0  0  0  0  0  0  0
   -9.3169    4.4786    1.2487 N   0  0  0  0  0  0  0  0  0  0  0  0
   -9.7544    3.7714    0.0409 C   0  0  2  0  0  0  0  0  0  0  0  0
  -11.2418    4.0542   -0.2313 C   0  0  0  0  0  0  0  0  0  0  0  0
   -9.5090    2.2890    0.2071 C   0  0  0  0  0  0  0  0  0  0  0  0
   -8.3809    1.8078   -0.0936 O   0  0  0  0  0  0  0  0  0  0  0  0
  -10.5001    1.4389    0.7956 N   0  0  0  0  0  0  0  0  0  0  0  0
  -11.1183    0.3847   -0.0147 C   0  0  2  0  0  0  0  0  0  0  0  0
  -12.6302    0.3356    0.2713 C   0  0  0  0  0  0  0  0  0  0  0  0
  -10.4662   -0.9458    0.2815 C   0  0  0  0  0  0  0  0  0  0  0  0
  -10.5532   -1.4619    1.4306 O   0  0  0  0  0  0  0  0  0  0  0  0
   -9.7436   -1.6310   -0.7454 N   0  0  0  0  0  0  0  0  0  0  0  0
  -10.2757   -2.7501   -1.5298 C   0  0  2  0  0  0  0  0  0  0  0  0
  -11.7977   -2.8961   -1.4067 C   0  0  0  0  0  0  0  0  0  0  0  0
   -9.6075   -4.0514   -1.1766 C   0  0  0  0  0  0  0  0  0  0  0  0
   -9.6003   -4.9852   -2.0277 O   0  0  0  0  0  0  0  0  0  0  0  0
   -8.9521   -4.2455    0.0854 N   0  0  0  0  0  0  0  0  0  0  0  0
   -9.4892   -5.1791    1.0783 C   0  0  2  0  0  0  0  0  0  0  0  0
   -8.5982   -5.2689    2.3099 C   0  0  0  0  0  0  0  0  0  0  0  0
   -9.7734   -6.5564    0.4986 C   0  0  0  0  0  0  0  0  0  0  0  0
  -10.9340   -7.0241    0.6473 O   0  0  0  0  0  0  0  0  0  0  0  0
   -8.8147   -7.3507   -0.2318 N   0  0  0  0  0  0  0  0  0  0  0  0
   -7.3893   -7.0452   -0.4650 C   0  0  2  0  0  0  0  0  0  0  0  0
   -6.9772   -7.6307   -1.8179 C   0  0  0  0  0  0  0  0  0  0  0  0
   -6.5211   -7.6383    0.6299 C   0  0  0  0  0  0  0  0  0  0  0  0
   -7.0690   -8.3035    1.5544 O   0  0  0  0  0  0  0  0  0  0  0  0
   -5.0862   -7.5974    0.5644 N   0  0  0  0  0  0  0  0  0  0  0  0
   -4.2234   -6.4038    0.5886 C   0  0  2  0  0  0  0  0  0  0  0  0
   -4.9122   -5.1320    1.0991 C   0  0  0  0  0  0  0  0  0  0  0  0
   -3.5832   -6.1897   -0.7643 C   0  0  0  0  0  0  0  0  0  0  0  0
   -4.2245   -5.5685   -1.6554 O   0  0  0  0  0  0  0  0  0  0  0  0
   -2.2906   -6.7227   -1.0986 N   0  0  0  0  0  0  0  0  0  0  0  0
   -1.3518   -7.3188   -0.1267 C   0  0  1  0  0  0  0  0  0  0  0  0
   -1.7746   -8.7304    0.2059 C   0  0  0  0  0  0  0  0  0  0  0  0
   -2.2496   -9.6117   -0.8115 N   0  0  0  0  0  0  0  0  0  0  0  0
   -1.6863   -9.1378    1.3925 O   0  0  0  0  0  0  0  0  0  0  0  0
    0.0855   -7.3105   -0.6620 C   0  0  0  0  0  0  0  0  0  0  0  0
    0.7146   -5.6107   -0.9571 S   0  0  0  0  0  0  0  0  0  0  0  0
    0.6905   -5.0456    0.7821 C   0  0  0  0  0  0  0  0  0  0  0  0
    8.8909   -6.6620   -1.6010 H   0  0  0  0  0  0  0  0  0  0  0  0
    9.6007   -6.3477   -3.2129 H   0  0  0  0  0  0  0  0  0  0  0  0
   10.3352   -5.5770   -1.7620 H   0  0  0  0  0  0  0  0  0  0  0  0
    7.9273   -2.8468   -1.5086 H   0  0  0  0  0  0  0  0  0  0  0  0
    7.6181   -3.3732    0.6818 H   0  0  0  0  0  0  0  0  0  0  0  0
    6.6200   -5.9413   -0.6716 H   0  0  0  0  0  0  0  0  0  0  0  0
    5.6921   -4.4395   -0.3818 H   0  0  0  0  0  0  0  0  0  0  0  0
    6.1701   -3.4462    2.4077 H   0  0  0  0  0  0  0  0  0  0  0  0
    5.1631   -4.4462    3.4897 H   0  0  0  0  0  0  0  0  0  0  0  0
    3.1431   -5.6425    1.7437 H   0  0  0  0  0  0  0  0  0  0  0  0
    0.7138   -2.3476    0.4778 H   0  0  0  0  0  0  0  0  0  0  0  0
    4.7238   -1.6468    1.8485 H   0  0  0  0  0  0  0  0  0  0  0  0
    2.8345    0.1333    2.0054 H   0  0  0  0  0  0  0  0  0  0  0  0
    1.3721   -0.1492    1.0063 H   0  0  0  0  0  0  0  0  0  0  0  0
    1.6179    1.9624    0.4150 H   0  0  0  0  0  0  0  0  0  0  0  0
    2.1510    2.3345   -1.2330 H   0  0  0  0  0  0  0  0  0  0  0  0
    4.1313    2.5993    1.0973 H   0  0  0  0  0  0  0  0  0  0  0  0
    4.1830    3.2910   -1.7143 H   0  0  0  0  0  0  0  0  0  0  0  0
    4.9214    5.3690    1.3848 H   0  0  0  0  0  0  0  0  0  0  0  0
    6.0015    3.4723    2.0820 H   0  0  0  0  0  0  0  0  0  0  0  0
    7.3415    4.6425    2.1973 H   0  0  0  0  0  0  0  0  0  0  0  0
    7.2397    3.5035    0.7921 H   0  0  0  0  0  0  0  0  0  0  0  0
    6.0322    7.2860    1.1241 H   0  0  0  0  0  0  0  0  0  0  0  0
    8.1078    4.7775   -0.7497 H   0  0  0  0  0  0  0  0  0  0  0  0
    9.4769    5.4729   -2.6680 H   0  0  0  0  0  0  0  0  0  0  0  0
    9.4130    7.1944   -2.1318 H   0  0  0  0  0  0  0  0  0  0  0  0
    7.9051    6.3518   -2.6549 H   0  0  0  0  0  0  0  0  0  0  0  0
   10.5556    6.3980    0.0605 H   0  0  0  0  0  0  0  0  0  0  0  0
    9.7490    2.5589    0.0345 H   0  0  0  0  0  0  0  0  0  0  0  0
   11.9182    2.4527   -1.3786 H   0  0  0  0  0  0  0  0  0  0  0  0
   10.8298    3.7944   -1.8075 H   0  0  0  0  0  0  0  0  0  0  0  0
   12.3031    4.1060   -0.8024 H   0  0  0  0  0  0  0  0  0  0  0  0
   11.8704    2.9544    2.0602 H   0  0  0  0  0  0  0  0  0  0  0  0
   10.6601    0.6321   -0.5880 H   0  0  0  0  0  0  0  0  0  0  0  0
   13.1894   -1.0410   -0.1140 H   0  0  0  0  0  0  0  0  0  0  0  0
   12.9807    0.2922   -1.3017 H   0  0  0  0  0  0  0  0  0  0  0  0
   12.0250   -1.2266   -1.4765 H   0  0  0  0  0  0  0  0  0  0  0  0
    9.4833   -0.8692    0.7322 H   0  0  0  0  0  0  0  0  0  0  0  0
   10.5104   -3.2495   -0.3864 H   0  0  0  0  0  0  0  0  0  0  0  0
   12.7449   -4.3416    1.4306 H   0  0  0  0  0  0  0  0  0  0  0  0
   12.1028   -5.1342   -0.0597 H   0  0  0  0  0  0  0  0  0  0  0  0
   12.9360   -3.5436   -0.1852 H   0  0  0  0  0  0  0  0  0  0  0  0
   10.2972   -4.5780    2.3580 H   0  0  0  0  0  0  0  0  0  0  0  0
    2.3031    6.0886    0.1638 H   0  0  0  0  0  0  0  0  0  0  0  0
    0.3103    3.7845   -0.0034 H   0  0  0  0  0  0  0  0  0  0  0  0
   -0.7754    5.0585   -1.8346 H   0  0  0  0  0  0  0  0  0  0  0  0
    0.5311    6.3097   -1.7461 H   0  0  0  0  0  0  0  0  0  0  0  0
    0.9263    4.6215   -2.2313 H   0  0  0  0  0  0  0  0  0  0  0  0
   -0.1085    7.7073    1.1502 H   0  0  0  0  0  0  0  0  0  0  0  0
   -2.3368    6.5170   -0.5536 H   0  0  0  0  0  0  0  0  0  0  0  0
   -1.5091    9.4797   -0.2975 H   0  0  0  0  0  0  0  0  0  0  0  0
   -2.6542    8.7601   -1.4889 H   0  0  0  0  0  0  0  0  0  0  0  0
   -0.9159    8.3732   -1.5807 H   0  0  0  0  0  0  0  0  0  0  0  0
   -4.9822    7.9814    1.7251 H   0  0  0  0  0  0  0  0  0  0  0  0
   -4.3428    7.1204   -1.1291 H   0  0  0  0  0  0  0  0  0  0  0  0
   -4.7171    9.6508   -0.8150 H   0  0  0  0  0  0  0  0  0  0  0  0
   -6.3877    9.2626   -0.2813 H   0  0  0  0  0  0  0  0  0  0  0  0
   -5.8306    8.8296   -1.9557 H   0  0  0  0  0  0  0  0  0  0  0  0
   -7.5533    7.2901   -1.6270 H   0  0  0  0  0  0  0  0  0  0  0  0
   -9.5351    6.4102   -0.5927 H   0  0  0  0  0  0  0  0  0  0  0  0
   -8.2417    8.4986    1.2461 H   0  0  0  0  0  0  0  0  0  0  0  0
   -9.1817    8.8051   -0.2643 H   0  0  0  0  0  0  0  0  0  0  0  0
  -10.0032    8.0789    1.1622 H   0  0  0  0  0  0  0  0  0  0  0  0
   -9.4484    4.0085    2.1741 H   0  0  0  0  0  0  0  0  0  0  0  0
   -9.1651    4.1107   -0.8376 H   0  0  0  0  0  0  0  0  0  0  0  0
  -11.8599    3.8122    0.6582 H   0  0  0  0  0  0  0  0  0  0  0  0
  -11.5993    3.4452   -1.0889 H   0  0  0  0  0  0  0  0  0  0  0  0
  -11.4021    5.1243   -0.4740 H   0  0  0  0  0  0  0  0  0  0  0  0
  -11.0194    1.8208    1.6144 H   0  0  0  0  0  0  0  0  0  0  0  0
  -11.0005    0.6232   -1.0959 H   0  0  0  0  0  0  0  0  0  0  0  0
  -13.1578   -0.2626   -0.4928 H   0  0  0  0  0  0  0  0  0  0  0  0
  -13.0562    1.3600    0.2478 H   0  0  0  0  0  0  0  0  0  0  0  0
  -12.8295   -0.0943    1.2734 H   0  0  0  0  0  0  0  0  0  0  0  0
   -8.7573   -1.3413   -0.9179 H   0  0  0  0  0  0  0  0  0  0  0  0
  -10.0550   -2.5235   -2.6024 H   0  0  0  0  0  0  0  0  0  0  0  0
  -12.0913   -3.0809   -0.3487 H   0  0  0  0  0  0  0  0  0  0  0  0
  -12.1473   -3.7590   -2.0123 H   0  0  0  0  0  0  0  0  0  0  0  0
  -12.2938   -1.9843   -1.7849 H   0  0  0  0  0  0  0  0  0  0  0  0
   -8.3592   -3.4586    0.4404 H   0  0  0  0  0  0  0  0  0  0  0  0
  -10.4582   -4.7622    1.4308 H   0  0  0  0  0  0  0  0  0  0  0  0
   -7.6080   -5.6958    2.0695 H   0  0  0  0  0  0  0  0  0  0  0  0
   -9.0774   -5.9074    3.0812 H   0  0  0  0  0  0  0  0  0  0  0  0
   -8.4495   -4.2614    2.7554 H   0  0  0  0  0  0  0  0  0  0  0  0
   -9.1684   -8.2711   -0.5891 H   0  0  0  0  0  0  0  0  0  0  0  0
   -7.2482   -5.9557   -0.5263 H   0  0  0  0  0  0  0  0  0  0  0  0
   -5.9098   -7.4288   -2.0361 H   0  0  0  0  0  0  0  0  0  0  0  0
   -7.1278   -8.7310   -1.8199 H   0  0  0  0  0  0  0  0  0  0  0  0
   -7.5908   -7.1790   -2.6306 H   0  0  0  0  0  0  0  0  0  0  0  0
   -4.6162   -8.5010    0.7896 H   0  0  0  0  0  0  0  0  0  0  0  0
   -3.4381   -6.5988    1.3438 H   0  0  0  0  0  0  0  0  0  0  0  0
   -5.3418   -5.3118    2.1021 H   0  0  0  0  0  0  0  0  0  0  0  0
   -5.6899   -4.7707    0.4045 H   0  0  0  0  0  0  0  0  0  0  0  0
   -4.1645   -4.3212    1.1941 H   0  0  0  0  0  0  0  0  0  0  0  0
   -1.9840   -6.6440   -2.0899 H   0  0  0  0  0  0  0  0  0  0  0  0
   -1.3547   -6.7298    0.8115 H   0  0  0  0  0  0  0  0  0  0  0  0
   -2.5686  -10.5702   -0.5468 H   0  0  0  0  0  0  0  0  0  0  0  0
   -2.3047   -9.3160   -1.8211 H   0  0  0  0  0  0  0  0  0  0  0  0
    0.1285   -7.8658   -1.6235 H   0  0  0  0  0  0  0  0  0  0  0  0
    0.7617   -7.8243    0.0505 H   0  0  0  0  0  0  0  0  0  0  0  0
   -0.2792   -4.5374    0.9848 H   0  0  0  0  0  0  0  0  0  0  0  0
    0.7699   -5.9044    1.4836 H   0  0  0  0  0  0  0  0  0  0  0  0
  1  2  1  0
  2  3  2  0
  2  4  1  0
  4  5  1  0
  5  6  1  0
  6  7  1  0
  7  8  1  0
  8  9  1  0
  9 10  1  0
 10 11  2  0
 11 12  1  0
 12 13  2  0
 13 14  1  0
 13 15  1  0
 15 16  1  0
 16 17  1  0
 17 18  1  0
 18 19  1  0
 19 20  1  0
 20 21  2  0
 20 22  1  0
 22 23  1  0
 22 24  1  0
 24 25  1  0
 25 26  2  0
 25 27  1  0
 27 28  1  0
 27 29  1  0
 29 30  1  0
 30 31  2  0
 30 32  1  0
 32 33  1  0
 32 34  1  0
 34 35  1  0
 35 36  2  0
 35 37  1  0
 37 38  1  0
 37 39  1  0
 39 40  1  0
 40 41  2  0
 40 42  1  0
 42 43  1  0
 42 44  1  0
 44 45  1  0
 45 46  2  0
 18 47  1  0
 47 48  2  0
 47 49  1  0
 49 50  1  0
 50 51  1  0
 50 52  1  0
 52 53  2  0
 52 54  1  0
 54 55  1  0
 55 56  1  0
 55 57  1  0
 57 58  2  0
 57 59  1  0
 59 60  1  0
 60 61  1  0
 60 62  1  0
 62 63  2  0
 62 64  1  0
 64 65  1  0
 65 66  1  0
 65 67  1  0
 67 68  2  0
 67 69  1  0
 69 70  1  0
 70 71  1  0
 70 72  1  0
 72 73  2  0
 72 74  1  0
 74 75  1  0
 75 76  1  0
 75 77  1  0
 77 78  2  0
 77 79  1  0
 79 80  1  0
 80 81  1  0
 80 82  1  0
 82 83  2  0
 82 84  1  0
 84 85  1  0
 85 86  1  0
 85 87  1  0
 87 88  2  0
 87 89  1  0
 89 90  1  0
 90 91  1  0
 90 92  1  0
 92 93  2  0
 92 94  1  0
 94 95  1  0
 95 96  1  0
 95 97  1  0
 97 98  2  0
 97 99  1  0
 99100  1  0
100101  1  0
101102  1  0
101103  2  0
100104  1  0
104105  1  0
105106  1  0
 45  5  1  0
 14  9  2  0
106 11  1  0
  1107  1  0
  1108  1  0
  1109  1  0
  4110  1  0
  5111  1  1
  6112  1  0
  6113  1  0
  8114  1  0
  8115  1  0
 10116  1  0
 12117  1  0
 14118  1  0
 15119  1  0
 15120  1  0
 17121  1  0
 17122  1  0
 18123  1  1
 19124  1  0
 22125  1  1
 23126  1  0
 23127  1  0
 23128  1  0
 24129  1  0
 27130  1  6
 28131  1  0
 28132  1  0
 28133  1  0
 29134  1  0
 32135  1  6
 33136  1  0
 33137  1  0
 33138  1  0
 34139  1  0
 37140  1  6
 38141  1  0
 38142  1  0
 38143  1  0
 39144  1  0
 42145  1  6
 43146  1  0
 43147  1  0
 43148  1  0
 44149  1  0
 49150  1  0
 50151  1  6
 51152  1  0
 51153  1  0
 51154  1  0
 54155  1  0
 55156  1  6
 56157  1  0
 56158  1  0
 56159  1  0
 59160  1  0
 60161  1  6
 61162  1  0
 61163  1  0
 61164  1  0
 64165  1  0
 65166  1  6
 66167  1  0
 66168  1  0
 66169  1  0
 69170  1  0
 70171  1  6
 71172  1  0
 71173  1  0
 71174  1  0
 74175  1  0
 75176  1  6
 76177  1  0
 76178  1  0
 76179  1  0
 79180  1  0
 80181  1  6
 81182  1  0
 81183  1  0
 81184  1  0
 84185  1  0
 85186  1  1
 86187  1  0
 86188  1  0
 86189  1  0
 89190  1  0
 90191  1  6
 91192  1  0
 91193  1  0
 91194  1  0
 94195  1  0
 95196  1  1
 96197  1  0
 96198  1  0
 96199  1  0
 99200  1  0
100201  1  1
102202  1  0
102203  1  0
104204  1  0
104205  1  0
106206  1  0
106207  1  0
M  END
