
     RDKit          3D

137139  0  0  0  0  0  0  0  0999 V2000
   -4.8887    7.3643    2.2120 C   0  0  0  0  0  0  0  0  0  0  0  0
   -4.2011    7.7295    0.9299 C   0  0  0  0  0  0  0  0  0  0  0  0
   -3.6435    8.8543    0.8646 O   0  0  0  0  0  0  0  0  0  0  0  0
   -4.1532    6.8666   -0.2236 N   0  0  0  0  0  0  0  0  0  0  0  0
   -4.6850    5.5008   -0.3316 C   0  0  1  0  0  0  0  0  0  0  0  0
   -3.9823    4.5282    0.6488 C   0  0  0  0  0  0  0  0  0  0  0  0
   -2.1654    4.7755    0.7459 S   0  0  0  0  0  0  0  0  0  0  0  0
   -1.7744    4.3957   -1.0010 C   0  0  0  0  0  0  0  0  0  0  0  0
   -0.5204    3.5729   -1.0793 C   0  0  0  0  0  0  0  0  0  0  0  0
    0.6521    4.0903   -1.6536 C   0  0  0  0  0  0  0  0  0  0  0  0
    1.7995    3.2872   -1.7877 C   0  0  0  0  0  0  0  0  0  0  0  0
    1.7475    1.9452   -1.3784 C   0  0  0  0  0  0  0  0  0  0  0  0
    0.5881    1.4203   -0.7856 C   0  0  0  0  0  0  0  0  0  0  0  0
   -0.5416    2.2411   -0.6433 C   0  0  0  0  0  0  0  0  0  0  0  0
    0.4729   -0.0486   -0.4790 C   0  0  0  0  0  0  0  0  0  0  0  0
    1.9454   -0.7067    0.3844 S   0  0  0  0  0  0  0  0  0  0  0  0
    1.1972   -2.3456    0.6709 C   0  0  0  0  0  0  0  0  0  0  0  0
    2.2559   -3.4336    0.8800 C   0  0  2  0  0  0  0  0  0  0  0  0
    1.5925   -4.7382    0.8213 N   0  0  0  0  0  0  0  0  0  0  0  0
    1.4783   -5.4342   -0.4252 C   0  0  0  0  0  0  0  0  0  0  0  0
    2.5178   -5.7294   -1.0753 O   0  0  0  0  0  0  0  0  0  0  0  0
    0.1094   -5.7460   -0.9742 C   0  0  1  0  0  0  0  0  0  0  0  0
    0.1580   -6.3042   -2.3983 C   0  0  0  0  0  0  0  0  0  0  0  0
   -0.5715   -6.7059   -0.1010 N   0  0  0  0  0  0  0  0  0  0  0  0
   -1.9113   -6.5612    0.4031 C   0  0  0  0  0  0  0  0  0  0  0  0
   -2.2586   -7.2574    1.3965 O   0  0  0  0  0  0  0  0  0  0  0  0
   -2.9348   -5.6404   -0.2270 C   0  0  1  0  0  0  0  0  0  0  0  0
   -4.1162   -6.4734   -0.7429 C   0  0  0  0  0  0  0  0  0  0  0  0
   -3.3218   -4.6188    0.7614 N   0  0  0  0  0  0  0  0  0  0  0  0
   -4.6628   -4.2435    1.1039 C   0  0  0  0  0  0  0  0  0  0  0  0
   -5.0410   -4.3603    2.2985 O   0  0  0  0  0  0  0  0  0  0  0  0
   -5.5700   -3.5726    0.1036 C   0  0  1  0  0  0  0  0  0  0  0  0
   -6.8824   -4.3482   -0.0502 C   0  0  0  0  0  0  0  0  0  0  0  0
   -5.8810   -2.2176    0.5634 N   0  0  0  0  0  0  0  0  0  0  0  0
   -5.7457   -1.0664   -0.2801 C   0  0  0  0  0  0  0  0  0  0  0  0
   -4.7148   -0.9314   -0.9985 O   0  0  0  0  0  0  0  0  0  0  0  0
   -6.7885    0.0235   -0.2572 C   0  0  1  0  0  0  0  0  0  0  0  0
   -8.1908   -0.5857   -0.3882 C   0  0  0  0  0  0  0  0  0  0  0  0
   -6.6912    0.7888    0.9905 N   0  0  0  0  0  0  0  0  0  0  0  0
   -7.1187    2.1549    1.1397 C   0  0  0  0  0  0  0  0  0  0  0  0
   -7.5254    2.5327    2.2725 O   0  0  0  0  0  0  0  0  0  0  0  0
   -7.0768    3.1552    0.0008 C   0  0  1  0  0  0  0  0  0  0  0  0
   -8.3697    3.1057   -0.8221 C   0  0  0  0  0  0  0  0  0  0  0  0
   -6.9022    4.5150    0.5285 N   0  0  0  0  0  0  0  0  0  0  0  0
   -6.1911    5.5114   -0.2148 C   0  0  0  0  0  0  0  0  0  0  0  0
   -6.8464    6.4269   -0.7868 O   0  0  0  0  0  0  0  0  0  0  0  0
    2.9557   -3.2698    2.2151 C   0  0  0  0  0  0  0  0  0  0  0  0
    2.2519   -3.2382    3.2622 O   0  0  0  0  0  0  0  0  0  0  0  0
    4.3874   -3.1554    2.3516 N   0  0  0  0  0  0  0  0  0  0  0  0
    5.3645   -3.3908    1.2723 C   0  0  2  0  0  0  0  0  0  0  0  0
    5.3984   -4.8782    0.9127 C   0  0  0  0  0  0  0  0  0  0  0  0
    6.7642   -2.9607    1.6680 C   0  0  0  0  0  0  0  0  0  0  0  0
    7.1121   -3.0138    2.8798 O   0  0  0  0  0  0  0  0  0  0  0  0
    7.7500   -2.5931    0.6851 N   0  0  0  0  0  0  0  0  0  0  0  0
    7.4351   -2.2184   -0.6977 C   0  0  2  0  0  0  0  0  0  0  0  0
    8.6718   -2.3740   -1.5916 C   0  0  0  0  0  0  0  0  0  0  0  0
    6.9004   -0.8090   -0.7226 C   0  0  0  0  0  0  0  0  0  0  0  0
    5.6909   -0.6117   -1.0190 O   0  0  0  0  0  0  0  0  0  0  0  0
    7.7339    0.2945   -0.3395 N   0  0  0  0  0  0  0  0  0  0  0  0
    7.3373    1.2862    0.6637 C   0  0  2  0  0  0  0  0  0  0  0  0
    7.1807    0.6181    2.0375 C   0  0  0  0  0  0  0  0  0  0  0  0
    6.0980    2.0399    0.2447 C   0  0  0  0  0  0  0  0  0  0  0  0
    4.9935    1.8163    0.8141 O   0  0  0  0  0  0  0  0  0  0  0  0
    6.1858    3.0389   -0.7833 N   0  0  0  0  0  0  0  0  0  0  0  0
    5.9043    4.4592   -0.5364 C   0  0  2  0  0  0  0  0  0  0  0  0
    6.7686    4.9733    0.5942 C   0  0  0  0  0  0  0  0  0  0  0  0
    7.7649    5.9686    0.3507 N   0  0  0  0  0  0  0  0  0  0  0  0
    6.6086    4.5335    1.7642 O   0  0  0  0  0  0  0  0  0  0  0  0
    4.4005    4.7321   -0.2733 C   0  0  0  0  0  0  0  0  0  0  0  0
    3.5715    5.4162   -1.7548 S   0  0  0  0  0  0  0  0  0  0  0  0
    3.0385    3.8187   -2.4678 C   0  0  0  0  0  0  0  0  0  0  0  0
   -4.1292    7.0808    2.9707 H   0  0  0  0  0  0  0  0  0  0  0  0
   -5.6142    6.5431    2.0947 H   0  0  0  0  0  0  0  0  0  0  0  0
   -5.4528    8.2452    2.5880 H   0  0  0  0  0  0  0  0  0  0  0  0
   -3.6833    7.2496   -1.0746 H   0  0  0  0  0  0  0  0  0  0  0  0
   -4.4774    5.1388   -1.3608 H   0  0  0  0  0  0  0  0  0  0  0  0
   -4.1778    3.4765    0.3482 H   0  0  0  0  0  0  0  0  0  0  0  0
   -4.3867    4.6515    1.6718 H   0  0  0  0  0  0  0  0  0  0  0  0
   -1.6535    5.3558   -1.5426 H   0  0  0  0  0  0  0  0  0  0  0  0
   -2.5899    3.8283   -1.4926 H   0  0  0  0  0  0  0  0  0  0  0  0
    0.6713    5.1128   -2.0079 H   0  0  0  0  0  0  0  0  0  0  0  0
    2.6041    1.3032   -1.5449 H   0  0  0  0  0  0  0  0  0  0  0  0
   -1.4575    1.8336   -0.2312 H   0  0  0  0  0  0  0  0  0  0  0  0
   -0.4195   -0.2360    0.1580 H   0  0  0  0  0  0  0  0  0  0  0  0
    0.3367   -0.5950   -1.4366 H   0  0  0  0  0  0  0  0  0  0  0  0
    0.5865   -2.6247   -0.2159 H   0  0  0  0  0  0  0  0  0  0  0  0
    0.5081   -2.2855    1.5410 H   0  0  0  0  0  0  0  0  0  0  0  0
    2.9714   -3.3566    0.0406 H   0  0  0  0  0  0  0  0  0  0  0  0
    0.8704   -4.9403    1.5475 H   0  0  0  0  0  0  0  0  0  0  0  0
   -0.4276   -4.7818   -0.9983 H   0  0  0  0  0  0  0  0  0  0  0  0
   -0.8740   -6.4884   -2.7694 H   0  0  0  0  0  0  0  0  0  0  0  0
    0.7206   -7.2641   -2.4250 H   0  0  0  0  0  0  0  0  0  0  0  0
    0.6508   -5.5749   -3.0795 H   0  0  0  0  0  0  0  0  0  0  0  0
   -0.0357   -7.5554    0.2011 H   0  0  0  0  0  0  0  0  0  0  0  0
   -2.5182   -5.1232   -1.1094 H   0  0  0  0  0  0  0  0  0  0  0  0
   -4.7322   -5.8692   -1.4378 H   0  0  0  0  0  0  0  0  0  0  0  0
   -4.7354   -6.8474    0.0994 H   0  0  0  0  0  0  0  0  0  0  0  0
   -3.7451   -7.3450   -1.3229 H   0  0  0  0  0  0  0  0  0  0  0  0
   -2.5659   -4.2200    1.3654 H   0  0  0  0  0  0  0  0  0  0  0  0
   -5.0620   -3.5342   -0.8840 H   0  0  0  0  0  0  0  0  0  0  0  0
   -6.7035   -5.3888   -0.3832 H   0  0  0  0  0  0  0  0  0  0  0  0
   -7.5215   -3.8489   -0.8049 H   0  0  0  0  0  0  0  0  0  0  0  0
   -7.4314   -4.3792    0.9143 H   0  0  0  0  0  0  0  0  0  0  0  0
   -6.3985   -2.1133    1.4667 H   0  0  0  0  0  0  0  0  0  0  0  0
   -6.6146    0.6859   -1.1289 H   0  0  0  0  0  0  0  0  0  0  0  0
   -8.9684    0.2035   -0.3482 H   0  0  0  0  0  0  0  0  0  0  0  0
   -8.3990   -1.2949    0.4389 H   0  0  0  0  0  0  0  0  0  0  0  0
   -8.2831   -1.1242   -1.3561 H   0  0  0  0  0  0  0  0  0  0  0  0
   -6.5764    0.2462    1.8774 H   0  0  0  0  0  0  0  0  0  0  0  0
   -6.2265    2.9153   -0.6685 H   0  0  0  0  0  0  0  0  0  0  0  0
   -8.3787    3.9353   -1.5596 H   0  0  0  0  0  0  0  0  0  0  0  0
   -8.4415    2.1600   -1.3958 H   0  0  0  0  0  0  0  0  0  0  0  0
   -9.2586    3.2043   -0.1609 H   0  0  0  0  0  0  0  0  0  0  0  0
   -7.6322    4.8681    1.1894 H   0  0  0  0  0  0  0  0  0  0  0  0
    4.7362   -2.9203    3.3122 H   0  0  0  0  0  0  0  0  0  0  0  0
    5.0539   -2.7938    0.3953 H   0  0  0  0  0  0  0  0  0  0  0  0
    6.1879   -5.0785    0.1550 H   0  0  0  0  0  0  0  0  0  0  0  0
    4.4295   -5.2045    0.4944 H   0  0  0  0  0  0  0  0  0  0  0  0
    5.6075   -5.4897    1.8179 H   0  0  0  0  0  0  0  0  0  0  0  0
    8.7247   -2.4340    1.0286 H   0  0  0  0  0  0  0  0  0  0  0  0
    6.6725   -2.9157   -1.1093 H   0  0  0  0  0  0  0  0  0  0  0  0
    8.9749   -3.4456   -1.6187 H   0  0  0  0  0  0  0  0  0  0  0  0
    8.4403   -2.0510   -2.6262 H   0  0  0  0  0  0  0  0  0  0  0  0
    9.5288   -1.7862   -1.2042 H   0  0  0  0  0  0  0  0  0  0  0  0
    8.7362    0.2904   -0.6348 H   0  0  0  0  0  0  0  0  0  0  0  0
    8.1593    2.0316    0.7638 H   0  0  0  0  0  0  0  0  0  0  0  0
    8.1194    0.0918    2.3119 H   0  0  0  0  0  0  0  0  0  0  0  0
    6.3466   -0.1167    2.0262 H   0  0  0  0  0  0  0  0  0  0  0  0
    6.9712    1.3867    2.8134 H   0  0  0  0  0  0  0  0  0  0  0  0
    6.7912    2.8155   -1.6051 H   0  0  0  0  0  0  0  0  0  0  0  0
    6.2021    5.0206   -1.4494 H   0  0  0  0  0  0  0  0  0  0  0  0
    8.3524    6.3304    1.1388 H   0  0  0  0  0  0  0  0  0  0  0  0
    7.8622    6.4118   -0.5872 H   0  0  0  0  0  0  0  0  0  0  0  0
    4.2904    5.5069    0.5177 H   0  0  0  0  0  0  0  0  0  0  0  0
    3.8664    3.8374    0.0960 H   0  0  0  0  0  0  0  0  0  0  0  0
    3.8752    3.0911   -2.4148 H   0  0  0  0  0  0  0  0  0  0  0  0
    2.8080    3.9762   -3.5405 H   0  0  0  0  0  0  0  0  0  0  0  0
  1  2  1  0
  2  3  2  0
  2  4  1  0
  4  5  1  0
  5  6  1  0
  6  7  1  0
  7  8  1  0
  8  9  1  0
  9 10  1  0
 10 11  2  0
 11 12  1  0
 12 13  2  0
 13 14  1  0
 13 15  1  0
 15 16  1  0
 16 17  1  0
 17 18  1  0
 18 19  1  0
 19 20  1  0
 20 21  2  0
 20 22  1  0
 22 23  1  0
 22 24  1  0
 24 25  1  0
 25 26  2  0
 25 27  1  0
 27 28  1  0
 27 29  1  0
 29 30  1  0
 30 31  2  0
 30 32  1  0
 32 33  1  0
 32 34  1  0
 34 35  1  0
 35 36  2  0
 35 37  1  0
 37 38  1  0
 37 39  1  0
 39 40  1  0
 40 41  2  0
 40 42  1  0
 42 43  1  0
 42 44  1  0
 44 45  1  0
 45 46  2  0
 18 47  1  0
 47 48  2  0
 47 49  1  0
 49 50  1  0
 50 51  1  0
 50 52  1  0
 52 53  2  0
 52 54  1  0
 54 55  1  0
 55 56  1  0
 55 57  1  0
 57 58  2  0
 57 59  1  0
 59 60  1  0
 60 61  1  0
 60 62  1  0
 62 63  2  0
 62 64  1  0
 64 65  1  0
 65 66  1  0
 66 67  1  0
 66 68  2  0
 65 69  1  0
 69 70  1  0
 70 71  1  0
 45  5  1  0
 14  9  2  0
 71 11  1  0
  1 72  1  0
  1 73  1  0
  1 74  1  0
  4 75  1  0
  5 76  1  6
  6 77  1  0
  6 78  1  0
  8 79  1  0
  8 80  1  0
 10 81  1  0
 12 82  1  0
 14 83  1  0
 15 84  1  0
 15 85  1  0
 17 86  1  0
 17 87  1  0
 18 88  1  6
 19 89  1  0
 22 90  1  6
 23 91  1  0
 23 92  1  0
 23 93  1  0
 24 94  1  0
 27 95  1  6
 28 96  1  0
 28 97  1  0
 28 98  1  0
 29 99  1  0
 32100  1  6
 33101  1  0
 33102  1  0
 33103  1  0
 34104  1  0
 37105  1  6
 38106  1  0
 38107  1  0
 38108  1  0
 39109  1  0
 42110  1  6
 43111  1  0
 43112  1  0
 43113  1  0
 44114  1  0
 49115  1  0
 50116  1  6
 51117  1  0
 51118  1  0
 51119  1  0
 54120  1  0
 55121  1  6
 56122  1  0
 56123  1  0
 56124  1  0
 59125  1  0
 60126  1  1
 61127  1  0
 61128  1  0
 61129  1  0
 64130  1  0
 65131  1  6
 67132  1  0
 67133  1  0
 69134  1  0
 69135  1  0
 71136  1  0
 71137  1  0
M  END
