
     RDKit          3D

157159  0  0  0  0  0  0  0  0999 V2000
   -6.0595    6.5042   -0.6796 C   0  0  0  0  0  0  0  0  0  0  0  0
   -6.0626    6.2765    0.8024 C   0  0  0  0  0  0  0  0  0  0  0  0
   -6.0854    7.2834    1.5632 O   0  0  0  0  0  0  0  0  0  0  0  0
   -6.0846    4.9636    1.3970 N   0  0  0  0  0  0  0  0  0  0  0  0
   -5.4920    3.7284    0.8528 C   0  0  2  0  0  0  0  0  0  0  0  0
   -3.9422    3.7282    0.9672 C   0  0  0  0  0  0  0  0  0  0  0  0
   -3.1257    5.2818    0.4240 S   0  0  0  0  0  0  0  0  0  0  0  0
   -2.6089    4.7318   -1.2405 C   0  0  0  0  0  0  0  0  0  0  0  0
   -1.3206    3.9688   -1.1496 C   0  0  0  0  0  0  0  0  0  0  0  0
   -0.1650    4.6216   -0.6985 C   0  0  0  0  0  0  0  0  0  0  0  0
    1.0440    3.9254   -0.5834 C   0  0  0  0  0  0  0  0  0  0  0  0
    1.1000    2.5676   -0.9401 C   0  0  0  0  0  0  0  0  0  0  0  0
   -0.0502    1.9012   -1.3906 C   0  0  0  0  0  0  0  0  0  0  0  0
   -1.2553    2.6146   -1.5102 C   0  0  0  0  0  0  0  0  0  0  0  0
    0.0464    0.4786   -1.8803 C   0  0  0  0  0  0  0  0  0  0  0  0
   -1.3742   -0.5357   -1.3139 S   0  0  0  0  0  0  0  0  0  0  0  0
   -0.6021   -1.2854    0.1725 C   0  0  0  0  0  0  0  0  0  0  0  0
   -0.3809   -2.7948   -0.0309 C   0  0  2  0  0  0  0  0  0  0  0  0
   -0.3196   -3.4671    1.2743 N   0  0  0  0  0  0  0  0  0  0  0  0
   -0.9512   -4.7179    1.6056 C   0  0  0  0  0  0  0  0  0  0  0  0
   -0.5702   -5.3203    2.6455 O   0  0  0  0  0  0  0  0  0  0  0  0
   -2.0207   -5.3582    0.7414 C   0  0  1  0  0  0  0  0  0  0  0  0
   -1.3672   -6.2321   -0.3319 C   0  0  0  0  0  0  0  0  0  0  0  0
   -2.9095   -6.1794    1.5717 N   0  0  0  0  0  0  0  0  0  0  0  0
   -4.2034   -5.7311    2.0065 C   0  0  0  0  0  0  0  0  0  0  0  0
   -4.4777   -5.7837    3.2362 O   0  0  0  0  0  0  0  0  0  0  0  0
   -5.2517   -5.2380    1.0188 C   0  0  1  0  0  0  0  0  0  0  0  0
   -5.3645   -6.2116   -0.1530 C   0  0  0  0  0  0  0  0  0  0  0  0
   -6.5616   -5.1145    1.6736 N   0  0  0  0  0  0  0  0  0  0  0  0
   -7.5666   -4.1305    1.3694 C   0  0  0  0  0  0  0  0  0  0  0  0
   -8.4731   -3.9206    2.2177 O   0  0  0  0  0  0  0  0  0  0  0  0
   -7.6645   -3.4418    0.0225 C   0  0  1  0  0  0  0  0  0  0  0  0
   -8.6278   -4.2136   -0.8821 C   0  0  0  0  0  0  0  0  0  0  0  0
   -8.1736   -2.0765    0.1895 N   0  0  0  0  0  0  0  0  0  0  0  0
   -7.5854   -0.9283   -0.4435 C   0  0  0  0  0  0  0  0  0  0  0  0
   -6.3840   -0.9637   -0.8350 O   0  0  0  0  0  0  0  0  0  0  0  0
   -8.3795    0.3496   -0.5985 C   0  0  1  0  0  0  0  0  0  0  0  0
   -9.7709    0.0560   -1.1825 C   0  0  0  0  0  0  0  0  0  0  0  0
   -8.5045    1.0083    0.7042 N   0  0  0  0  0  0  0  0  0  0  0  0
   -8.4723    2.4335    0.9090 C   0  0  0  0  0  0  0  0  0  0  0  0
   -8.3446    2.8700    2.0882 O   0  0  0  0  0  0  0  0  0  0  0  0
   -8.6165    3.4158   -0.2378 C   0  0  1  0  0  0  0  0  0  0  0  0
   -9.2775    4.7251    0.2036 C   0  0  0  0  0  0  0  0  0  0  0  0
   -7.3565    3.6921   -0.9428 N   0  0  0  0  0  0  0  0  0  0  0  0
   -6.0313    3.3426   -0.5111 C   0  0  0  0  0  0  0  0  0  0  0  0
   -5.3159    2.6514   -1.2854 O   0  0  0  0  0  0  0  0  0  0  0  0
    0.8547   -3.0837   -0.8561 C   0  0  0  0  0  0  0  0  0  0  0  0
    0.8995   -2.6701   -2.0459 O   0  0  0  0  0  0  0  0  0  0  0  0
    1.9107   -3.9351   -0.3922 N   0  0  0  0  0  0  0  0  0  0  0  0
    2.8976   -3.5366    0.6240 C   0  0  2  0  0  0  0  0  0  0  0  0
    3.4106   -2.1134    0.3801 C   0  0  0  0  0  0  0  0  0  0  0  0
    4.0597   -4.4989    0.6281 C   0  0  0  0  0  0  0  0  0  0  0  0
    4.3762   -5.0969    1.6931 O   0  0  0  0  0  0  0  0  0  0  0  0
    4.7689   -4.7843   -0.5806 N   0  0  0  0  0  0  0  0  0  0  0  0
    6.0171   -4.1028   -0.9263 C   0  0  2  0  0  0  0  0  0  0  0  0
    5.9636   -3.6637   -2.3900 C   0  0  0  0  0  0  0  0  0  0  0  0
    7.1844   -5.0440   -0.7128 C   0  0  0  0  0  0  0  0  0  0  0  0
    7.1040   -6.2176   -1.1600 O   0  0  0  0  0  0  0  0  0  0  0  0
    8.4035   -4.6222   -0.0753 N   0  0  0  0  0  0  0  0  0  0  0  0
    8.7653   -3.2185    0.1633 C   0  0  2  0  0  0  0  0  0  0  0  0
   10.2882   -3.0788    0.2316 C   0  0  0  0  0  0  0  0  0  0  0  0
    8.1428   -2.7318    1.4494 C   0  0  0  0  0  0  0  0  0  0  0  0
    7.9981   -3.5447    2.4047 O   0  0  0  0  0  0  0  0  0  0  0  0
    7.6819   -1.3821    1.6144 N   0  0  0  0  0  0  0  0  0  0  0  0
    8.2485   -0.2247    0.9096 C   0  0  2  0  0  0  0  0  0  0  0  0
    9.3134    0.4263    1.8005 C   0  0  0  0  0  0  0  0  0  0  0  0
    7.1358    0.7217    0.5399 C   0  0  0  0  0  0  0  0  0  0  0  0
    6.0996    0.2650   -0.0098 O   0  0  0  0  0  0  0  0  0  0  0  0
    7.2396    2.1302    0.7755 N   0  0  0  0  0  0  0  0  0  0  0  0
    8.0465    2.9880   -0.0948 C   0  0  2  0  0  0  0  0  0  0  0  0
    8.7234    4.0812    0.7420 C   0  0  0  0  0  0  0  0  0  0  0  0
    7.1714    3.5436   -1.1946 C   0  0  0  0  0  0  0  0  0  0  0  0
    6.6652    2.7428   -2.0291 O   0  0  0  0  0  0  0  0  0  0  0  0
    6.9515    4.9529   -1.3519 N   0  0  0  0  0  0  0  0  0  0  0  0
    5.6637    5.6103   -1.0981 C   0  0  2  0  0  0  0  0  0  0  0  0
    5.4760    5.8027    0.3842 C   0  0  0  0  0  0  0  0  0  0  0  0
    5.5851    7.1042    0.9630 N   0  0  0  0  0  0  0  0  0  0  0  0
    5.2560    4.8121    1.1304 O   0  0  0  0  0  0  0  0  0  0  0  0
    4.4964    4.8581   -1.7592 C   0  0  0  0  0  0  0  0  0  0  0  0
    2.8966    5.7135   -1.4897 S   0  0  0  0  0  0  0  0  0  0  0  0
    2.2733    4.6551   -0.1260 C   0  0  0  0  0  0  0  0  0  0  0  0
   -7.0812    6.3449   -1.0784 H   0  0  0  0  0  0  0  0  0  0  0  0
   -5.7657    7.5515   -0.9044 H   0  0  0  0  0  0  0  0  0  0  0  0
   -5.3519    5.8324   -1.2012 H   0  0  0  0  0  0  0  0  0  0  0  0
   -6.4052    4.9136    2.3888 H   0  0  0  0  0  0  0  0  0  0  0  0
   -5.8062    2.8975    1.5185 H   0  0  0  0  0  0  0  0  0  0  0  0
   -3.6816    3.6076    2.0395 H   0  0  0  0  0  0  0  0  0  0  0  0
   -3.5045    2.8481    0.4491 H   0  0  0  0  0  0  0  0  0  0  0  0
   -3.4082    4.1389   -1.7253 H   0  0  0  0  0  0  0  0  0  0  0  0
   -2.4485    5.6291   -1.8717 H   0  0  0  0  0  0  0  0  0  0  0  0
   -0.2031    5.6790   -0.4453 H   0  0  0  0  0  0  0  0  0  0  0  0
    2.0435    2.0371   -0.8801 H   0  0  0  0  0  0  0  0  0  0  0  0
   -2.1420    2.1244   -1.8972 H   0  0  0  0  0  0  0  0  0  0  0  0
    0.0238    0.4985   -2.9907 H   0  0  0  0  0  0  0  0  0  0  0  0
    1.0112    0.0107   -1.5780 H   0  0  0  0  0  0  0  0  0  0  0  0
    0.3350   -0.7700    0.4661 H   0  0  0  0  0  0  0  0  0  0  0  0
   -1.3217   -1.1358    1.0045 H   0  0  0  0  0  0  0  0  0  0  0  0
   -1.2432   -3.1805   -0.6140 H   0  0  0  0  0  0  0  0  0  0  0  0
    0.2726   -3.0262    2.0135 H   0  0  0  0  0  0  0  0  0  0  0  0
   -2.6246   -4.5715    0.2446 H   0  0  0  0  0  0  0  0  0  0  0  0
   -0.6460   -5.6400   -0.9305 H   0  0  0  0  0  0  0  0  0  0  0  0
   -0.8297   -7.0877    0.1345 H   0  0  0  0  0  0  0  0  0  0  0  0
   -2.1362   -6.6365   -1.0214 H   0  0  0  0  0  0  0  0  0  0  0  0
   -2.4919   -6.9928    2.0857 H   0  0  0  0  0  0  0  0  0  0  0  0
   -4.9220   -4.2449    0.6468 H   0  0  0  0  0  0  0  0  0  0  0  0
   -4.4145   -6.2536   -0.7226 H   0  0  0  0  0  0  0  0  0  0  0  0
   -6.1481   -5.8808   -0.8616 H   0  0  0  0  0  0  0  0  0  0  0  0
   -5.6220   -7.2302    0.2114 H   0  0  0  0  0  0  0  0  0  0  0  0
   -6.8103   -5.8073    2.4152 H   0  0  0  0  0  0  0  0  0  0  0  0
   -6.6729   -3.4215   -0.4767 H   0  0  0  0  0  0  0  0  0  0  0  0
   -9.6570   -4.1972   -0.4575 H   0  0  0  0  0  0  0  0  0  0  0  0
   -8.3158   -5.2707   -0.9979 H   0  0  0  0  0  0  0  0  0  0  0  0
   -8.6532   -3.7431   -1.8889 H   0  0  0  0  0  0  0  0  0  0  0  0
   -9.0869   -1.9591    0.6841 H   0  0  0  0  0  0  0  0  0  0  0  0
   -7.8414    1.0088   -1.3105 H   0  0  0  0  0  0  0  0  0  0  0  0
   -9.6794   -0.5467   -2.1100 H   0  0  0  0  0  0  0  0  0  0  0  0
  -10.4027   -0.4875   -0.4541 H   0  0  0  0  0  0  0  0  0  0  0  0
  -10.2899    1.0001   -1.4376 H   0  0  0  0  0  0  0  0  0  0  0  0
   -8.6379    0.4125    1.5517 H   0  0  0  0  0  0  0  0  0  0  0  0
   -9.3124    2.9740   -0.9714 H   0  0  0  0  0  0  0  0  0  0  0  0
  -10.2984    4.5226    0.5941 H   0  0  0  0  0  0  0  0  0  0  0  0
   -9.3697    5.4127   -0.6634 H   0  0  0  0  0  0  0  0  0  0  0  0
   -8.6891    5.2315    0.9950 H   0  0  0  0  0  0  0  0  0  0  0  0
   -7.4490    3.9529   -1.9502 H   0  0  0  0  0  0  0  0  0  0  0  0
    2.1110   -4.7692   -0.9898 H   0  0  0  0  0  0  0  0  0  0  0  0
    2.4233   -3.5602    1.6244 H   0  0  0  0  0  0  0  0  0  0  0  0
    3.7959   -2.0005   -0.6559 H   0  0  0  0  0  0  0  0  0  0  0  0
    4.2250   -1.8690    1.0993 H   0  0  0  0  0  0  0  0  0  0  0  0
    2.5970   -1.3782    0.5394 H   0  0  0  0  0  0  0  0  0  0  0  0
    4.4608   -5.6078   -1.1450 H   0  0  0  0  0  0  0  0  0  0  0  0
    6.1216   -3.1943   -0.3017 H   0  0  0  0  0  0  0  0  0  0  0  0
    5.1118   -2.9671   -2.5452 H   0  0  0  0  0  0  0  0  0  0  0  0
    5.8203   -4.5424   -3.0554 H   0  0  0  0  0  0  0  0  0  0  0  0
    6.9059   -3.1474   -2.6755 H   0  0  0  0  0  0  0  0  0  0  0  0
    9.1136   -5.3645    0.1254 H   0  0  0  0  0  0  0  0  0  0  0  0
    8.4058   -2.6154   -0.6980 H   0  0  0  0  0  0  0  0  0  0  0  0
   10.5784   -2.0141    0.3487 H   0  0  0  0  0  0  0  0  0  0  0  0
   10.6958   -3.6602    1.0887 H   0  0  0  0  0  0  0  0  0  0  0  0
   10.7403   -3.4565   -0.7100 H   0  0  0  0  0  0  0  0  0  0  0  0
    7.0886   -1.1847    2.4512 H   0  0  0  0  0  0  0  0  0  0  0  0
    8.7355   -0.5342   -0.0345 H   0  0  0  0  0  0  0  0  0  0  0  0
   10.0516   -0.3325    2.1350 H   0  0  0  0  0  0  0  0  0  0  0  0
    9.8680    1.2077    1.2429 H   0  0  0  0  0  0  0  0  0  0  0  0
    8.8437    0.8849    2.6983 H   0  0  0  0  0  0  0  0  0  0  0  0
    6.4661    2.5736    1.3185 H   0  0  0  0  0  0  0  0  0  0  0  0
    8.8499    2.3851   -0.5738 H   0  0  0  0  0  0  0  0  0  0  0  0
    9.3281    3.6191    1.5474 H   0  0  0  0  0  0  0  0  0  0  0  0
    9.3950    4.6919    0.1016 H   0  0  0  0  0  0  0  0  0  0  0  0
    7.9665    4.7408    1.2119 H   0  0  0  0  0  0  0  0  0  0  0  0
    7.7718    5.5570   -1.5900 H   0  0  0  0  0  0  0  0  0  0  0  0
    5.7053    6.6169   -1.5688 H   0  0  0  0  0  0  0  0  0  0  0  0
    5.7944    7.9421    0.3693 H   0  0  0  0  0  0  0  0  0  0  0  0
    5.5432    7.2229    1.9986 H   0  0  0  0  0  0  0  0  0  0  0  0
    4.6776    4.8375   -2.8553 H   0  0  0  0  0  0  0  0  0  0  0  0
    4.4409    3.8021   -1.4291 H   0  0  0  0  0  0  0  0  0  0  0  0
    2.0124    5.3086    0.7328 H   0  0  0  0  0  0  0  0  0  0  0  0
    3.0241    3.9301    0.2375 H   0  0  0  0  0  0  0  0  0  0  0  0
  1  2  1  0
  2  3  2  0
  2  4  1  0
  4  5  1  0
  5  6  1  0
  6  7  1  0
  7  8  1  0
  8  9  1  0
  9 10  2  0
 10 11  1  0
 11 12  2  0
 12 13  1  0
 13 14  2  0
 13 15  1  0
 15 16  1  0
 16 17  1  0
 17 18  1  0
 18 19  1  0
 19 20  1  0
 20 21  2  0
 20 22  1  0
 22 23  1  0
 22 24  1  0
 24 25  1  0
 25 26  2  0
 25 27  1  0
 27 28  1  0
 27 29  1  0
 29 30  1  0
 30 31  2  0
 30 32  1  0
 32 33  1  0
 32 34  1  0
 34 35  1  0
 35 36  2  0
 35 37  1  0
 37 38  1  0
 37 39  1  0
 39 40  1  0
 40 41  2  0
 40 42  1  0
 42 43  1  0
 42 44  1  0
 44 45  1  0
 45 46  2  0
 18 47  1  0
 47 48  2  0
 47 49  1  0
 49 50  1  0
 50 51  1  0
 50 52  1  0
 52 53  2  0
 52 54  1  0
 54 55  1  0
 55 56  1  0
 55 57  1  0
 57 58  2  0
 57 59  1  0
 59 60  1  0
 60 61  1  0
 60 62  1  0
 62 63  2  0
 62 64  1  0
 64 65  1  0
 65 66  1  0
 65 67  1  0
 67 68  2  0
 67 69  1  0
 69 70  1  0
 70 71  1  0
 70 72  1  0
 72 73  2  0
 72 74  1  0
 74 75  1  0
 75 76  1  0
 76 77  1  0
 76 78  2  0
 75 79  1  0
 79 80  1  0
 80 81  1  0
 45  5  1  0
 14  9  1  0
 81 11  1  0
  1 82  1  0
  1 83  1  0
  1 84  1  0
  4 85  1  0
  5 86  1  1
  6 87  1  0
  6 88  1  0
  8 89  1  0
  8 90  1  0
 10 91  1  0
 12 92  1  0
 14 93  1  0
 15 94  1  0
 15 95  1  0
 17 96  1  0
 17 97  1  0
 18 98  1  6
 19 99  1  0
 22100  1  6
 23101  1  0
 23102  1  0
 23103  1  0
 24104  1  0
 27105  1  6
 28106  1  0
 28107  1  0
 28108  1  0
 29109  1  0
 32110  1  6
 33111  1  0
 33112  1  0
 33113  1  0
 34114  1  0
 37115  1  6
 38116  1  0
 38117  1  0
 38118  1  0
 39119  1  0
 42120  1  6
 43121  1  0
 43122  1  0
 43123  1  0
 44124  1  0
 49125  1  0
 50126  1  1
 51127  1  0
 51128  1  0
 51129  1  0
 54130  1  0
 55131  1  1
 56132  1  0
 56133  1  0
 56134  1  0
 59135  1  0
 60136  1  6
 61137  1  0
 61138  1  0
 61139  1  0
 64140  1  0
 65141  1  6
 66142  1  0
 66143  1  0
 66144  1  0
 69145  1  0
 70146  1  6
 71147  1  0
 71148  1  0
 71149  1  0
 74150  1  0
 75151  1  6
 77152  1  0
 77153  1  0
 79154  1  0
 79155  1  0
 81156  1  0
 81157  1  0
M  END
