
     RDKit          3D

157159  0  0  0  0  0  0  0  0999 V2000
   -7.0995    6.5411   -2.2372 C   0  0  0  0  0  0  0  0  0  0  0  0
   -6.4519    5.3007   -2.7686 C   0  0  0  0  0  0  0  0  0  0  0  0
   -6.8504    4.8221   -3.8608 O   0  0  0  0  0  0  0  0  0  0  0  0
   -5.3789    4.6514   -2.0693 N   0  0  0  0  0  0  0  0  0  0  0  0
   -5.0698    4.9125   -0.6566 C   0  0  2  0  0  0  0  0  0  0  0  0
   -3.7181    4.2900   -0.2797 C   0  0  0  0  0  0  0  0  0  0  0  0
   -3.0626    5.0098    1.2792 S   0  0  0  0  0  0  0  0  0  0  0  0
   -2.2125    3.5098    1.8788 C   0  0  0  0  0  0  0  0  0  0  0  0
   -1.2109    2.9839    0.8786 C   0  0  0  0  0  0  0  0  0  0  0  0
    0.0052    3.6517    0.6657 C   0  0  0  0  0  0  0  0  0  0  0  0
    0.9565    3.1341   -0.2335 C   0  0  0  0  0  0  0  0  0  0  0  0
    0.6333    1.9858   -0.9771 C   0  0  0  0  0  0  0  0  0  0  0  0
   -0.5909    1.3243   -0.7958 C   0  0  0  0  0  0  0  0  0  0  0  0
   -1.4941    1.8175    0.1575 C   0  0  0  0  0  0  0  0  0  0  0  0
   -0.9573    0.1905   -1.7226 C   0  0  0  0  0  0  0  0  0  0  0  0
   -2.1650   -0.9902   -1.0253 S   0  0  0  0  0  0  0  0  0  0  0  0
   -1.0143   -1.8144    0.1359 C   0  0  0  0  0  0  0  0  0  0  0  0
   -0.6786   -3.2328   -0.3415 C   0  0  2  0  0  0  0  0  0  0  0  0
   -0.0153   -3.9849    0.7316 N   0  0  0  0  0  0  0  0  0  0  0  0
   -0.4864   -5.2150    1.3303 C   0  0  0  0  0  0  0  0  0  0  0  0
    0.0205   -5.5741    2.4330 O   0  0  0  0  0  0  0  0  0  0  0  0
   -1.4844   -6.1392    0.6629 C   0  0  1  0  0  0  0  0  0  0  0  0
   -0.7862   -7.4351    0.2384 C   0  0  0  0  0  0  0  0  0  0  0  0
   -2.5782   -6.4504    1.5998 N   0  0  0  0  0  0  0  0  0  0  0  0
   -3.9739   -6.1492    1.4081 C   0  0  0  0  0  0  0  0  0  0  0  0
   -4.8188   -6.7591    2.1172 O   0  0  0  0  0  0  0  0  0  0  0  0
   -4.4574   -5.1765    0.3446 C   0  0  1  0  0  0  0  0  0  0  0  0
   -4.6756   -5.9079   -0.9839 C   0  0  0  0  0  0  0  0  0  0  0  0
   -5.7020   -4.5072    0.7423 N   0  0  0  0  0  0  0  0  0  0  0  0
   -6.1709   -3.3238    0.0591 C   0  0  0  0  0  0  0  0  0  0  0  0
   -5.3295   -2.5782   -0.5162 O   0  0  0  0  0  0  0  0  0  0  0  0
   -7.6501   -2.9909   -0.0820 C   0  0  1  0  0  0  0  0  0  0  0  0
   -8.5292   -3.6132    1.0250 C   0  0  0  0  0  0  0  0  0  0  0  0
   -7.8355   -1.5340   -0.1947 N   0  0  0  0  0  0  0  0  0  0  0  0
   -8.6849   -0.7438    0.6499 C   0  0  0  0  0  0  0  0  0  0  0  0
   -9.8690   -0.5172    0.2894 O   0  0  0  0  0  0  0  0  0  0  0  0
   -8.1916   -0.2095    1.9705 C   0  0  1  0  0  0  0  0  0  0  0  0
   -6.6598   -0.1814    2.0837 C   0  0  0  0  0  0  0  0  0  0  0  0
   -8.7585    1.1142    2.2630 N   0  0  0  0  0  0  0  0  0  0  0  0
   -8.3119    2.3640    1.6985 C   0  0  0  0  0  0  0  0  0  0  0  0
   -8.3024    3.3874    2.4327 O   0  0  0  0  0  0  0  0  0  0  0  0
   -7.9858    2.5100    0.2275 C   0  0  1  0  0  0  0  0  0  0  0  0
   -8.9976    3.4119   -0.4850 C   0  0  0  0  0  0  0  0  0  0  0  0
   -6.6111    2.9831    0.0103 N   0  0  0  0  0  0  0  0  0  0  0  0
   -6.1662    4.3375    0.2034 C   0  0  0  0  0  0  0  0  0  0  0  0
   -6.7049    5.0656    1.0820 O   0  0  0  0  0  0  0  0  0  0  0  0
    0.1668   -3.2459   -1.5927 C   0  0  0  0  0  0  0  0  0  0  0  0
   -0.4022   -3.1951   -2.7185 O   0  0  0  0  0  0  0  0  0  0  0  0
    1.5882   -3.4187   -1.5406 N   0  0  0  0  0  0  0  0  0  0  0  0
    2.4730   -2.2779   -1.2599 C   0  0  2  0  0  0  0  0  0  0  0  0
    2.7321   -1.4669   -2.5391 C   0  0  0  0  0  0  0  0  0  0  0  0
    3.7878   -2.7541   -0.6850 C   0  0  0  0  0  0  0  0  0  0  0  0
    4.1835   -2.2939    0.4187 O   0  0  0  0  0  0  0  0  0  0  0  0
    4.6390   -3.6361   -1.4395 N   0  0  0  0  0  0  0  0  0  0  0  0
    6.0828   -3.7145   -1.1948 C   0  0  2  0  0  0  0  0  0  0  0  0
    6.7812   -4.3626   -2.3904 C   0  0  0  0  0  0  0  0  0  0  0  0
    6.3633   -4.5218    0.0565 C   0  0  0  0  0  0  0  0  0  0  0  0
    5.6821   -5.5624    0.2705 O   0  0  0  0  0  0  0  0  0  0  0  0
    7.4291   -4.1874    0.9618 N   0  0  0  0  0  0  0  0  0  0  0  0
    8.2084   -2.9461    0.9024 C   0  0  2  0  0  0  0  0  0  0  0  0
    9.5292   -3.1156    1.6561 C   0  0  0  0  0  0  0  0  0  0  0  0
    7.4363   -1.8167    1.5244 C   0  0  0  0  0  0  0  0  0  0  0  0
    6.8676   -1.9855    2.6416 O   0  0  0  0  0  0  0  0  0  0  0  0
    7.4131   -0.5279    0.9086 N   0  0  0  0  0  0  0  0  0  0  0  0
    7.7073    0.6859    1.6819 C   0  0  2  0  0  0  0  0  0  0  0  0
    6.4487    1.1943    2.4030 C   0  0  0  0  0  0  0  0  0  0  0  0
    8.2801    1.7521    0.7888 C   0  0  0  0  0  0  0  0  0  0  0  0
    9.5020    2.0505    0.9061 O   0  0  0  0  0  0  0  0  0  0  0  0
    7.4474    2.4567   -0.1532 N   0  0  0  0  0  0  0  0  0  0  0  0
    7.7399    3.8129   -0.6328 C   0  0  2  0  0  0  0  0  0  0  0  0
    8.9087    3.7902   -1.6339 C   0  0  0  0  0  0  0  0  0  0  0  0
    7.9862    4.7452    0.5358 C   0  0  0  0  0  0  0  0  0  0  0  0
    9.1732    4.9504    0.9118 O   0  0  0  0  0  0  0  0  0  0  0  0
    6.9160    5.3090    1.3169 N   0  0  0  0  0  0  0  0  0  0  0  0
    5.5676    5.6371    0.8354 C   0  0  1  0  0  0  0  0  0  0  0  0
    5.6481    6.5125   -0.3987 C   0  0  0  0  0  0  0  0  0  0  0  0
    4.9447    6.2258   -1.6093 N   0  0  0  0  0  0  0  0  0  0  0  0
    6.3404    7.5647   -0.3393 O   0  0  0  0  0  0  0  0  0  0  0  0
    4.6896    4.3722    0.7233 C   0  0  0  0  0  0  0  0  0  0  0  0
    2.9103    4.8018    0.8875 S   0  0  0  0  0  0  0  0  0  0  0  0
    2.2474    3.8610   -0.5408 C   0  0  0  0  0  0  0  0  0  0  0  0
   -6.3376    7.3349   -2.1085 H   0  0  0  0  0  0  0  0  0  0  0  0
   -7.8874    6.9050   -2.9327 H   0  0  0  0  0  0  0  0  0  0  0  0
   -7.5768    6.3297   -1.2636 H   0  0  0  0  0  0  0  0  0  0  0  0
   -4.8810    3.8666   -2.5650 H   0  0  0  0  0  0  0  0  0  0  0  0
   -4.9893    6.0073   -0.4971 H   0  0  0  0  0  0  0  0  0  0  0  0
   -3.8286    3.1891   -0.2014 H   0  0  0  0  0  0  0  0  0  0  0  0
   -2.9679    4.4944   -1.0754 H   0  0  0  0  0  0  0  0  0  0  0  0
   -2.9787    2.7379    2.1165 H   0  0  0  0  0  0  0  0  0  0  0  0
   -1.6951    3.7525    2.8289 H   0  0  0  0  0  0  0  0  0  0  0  0
    0.1904    4.5745    1.2047 H   0  0  0  0  0  0  0  0  0  0  0  0
    1.3282    1.6214   -1.7235 H   0  0  0  0  0  0  0  0  0  0  0  0
   -2.4481    1.3277    0.3136 H   0  0  0  0  0  0  0  0  0  0  0  0
   -1.3980    0.6168   -2.6468 H   0  0  0  0  0  0  0  0  0  0  0  0
   -0.0516   -0.3673   -2.0147 H   0  0  0  0  0  0  0  0  0  0  0  0
   -0.0969   -1.2219    0.3186 H   0  0  0  0  0  0  0  0  0  0  0  0
   -1.5448   -1.8862    1.1107 H   0  0  0  0  0  0  0  0  0  0  0  0
   -1.6490   -3.6899   -0.5896 H   0  0  0  0  0  0  0  0  0  0  0  0
    0.8574   -3.5695    1.1391 H   0  0  0  0  0  0  0  0  0  0  0  0
   -1.8857   -5.7131   -0.2647 H   0  0  0  0  0  0  0  0  0  0  0  0
   -1.5168   -8.1164   -0.2397 H   0  0  0  0  0  0  0  0  0  0  0  0
   -0.3443   -7.9556    1.1106 H   0  0  0  0  0  0  0  0  0  0  0  0
    0.0148   -7.2158   -0.4964 H   0  0  0  0  0  0  0  0  0  0  0  0
   -2.3300   -7.0120    2.4490 H   0  0  0  0  0  0  0  0  0  0  0  0
   -3.6793   -4.4009    0.2270 H   0  0  0  0  0  0  0  0  0  0  0  0
   -3.7472   -6.4211   -1.3085 H   0  0  0  0  0  0  0  0  0  0  0  0
   -5.4887   -6.6582   -0.8797 H   0  0  0  0  0  0  0  0  0  0  0  0
   -4.9590   -5.1796   -1.7733 H   0  0  0  0  0  0  0  0  0  0  0  0
   -6.3177   -4.9469    1.4625 H   0  0  0  0  0  0  0  0  0  0  0  0
   -7.9869   -3.4471   -1.0437 H   0  0  0  0  0  0  0  0  0  0  0  0
   -8.5158   -4.7213    0.9530 H   0  0  0  0  0  0  0  0  0  0  0  0
   -9.5853   -3.2933    0.9004 H   0  0  0  0  0  0  0  0  0  0  0  0
   -8.1683   -3.3034    2.0312 H   0  0  0  0  0  0  0  0  0  0  0  0
   -7.4798   -1.0752   -1.0644 H   0  0  0  0  0  0  0  0  0  0  0  0
   -8.5578   -0.9128    2.7499 H   0  0  0  0  0  0  0  0  0  0  0  0
   -6.2586   -1.2204    2.0666 H   0  0  0  0  0  0  0  0  0  0  0  0
   -6.2089    0.3969    1.2513 H   0  0  0  0  0  0  0  0  0  0  0  0
   -6.3626    0.2883    3.0504 H   0  0  0  0  0  0  0  0  0  0  0  0
   -9.3699    1.1844    3.1112 H   0  0  0  0  0  0  0  0  0  0  0  0
   -8.0736    1.5215   -0.2681 H   0  0  0  0  0  0  0  0  0  0  0  0
   -8.7509    3.4796   -1.5594 H   0  0  0  0  0  0  0  0  0  0  0  0
  -10.0247    2.9937   -0.3857 H   0  0  0  0  0  0  0  0  0  0  0  0
   -8.9988    4.4338   -0.0493 H   0  0  0  0  0  0  0  0  0  0  0  0
   -5.9866    2.3469   -0.5440 H   0  0  0  0  0  0  0  0  0  0  0  0
    1.9723   -4.1995   -2.1225 H   0  0  0  0  0  0  0  0  0  0  0  0
    1.9891   -1.6146   -0.5116 H   0  0  0  0  0  0  0  0  0  0  0  0
    3.3886   -2.0091   -3.2446 H   0  0  0  0  0  0  0  0  0  0  0  0
    1.7769   -1.2551   -3.0561 H   0  0  0  0  0  0  0  0  0  0  0  0
    3.2112   -0.5025   -2.2748 H   0  0  0  0  0  0  0  0  0  0  0  0
    4.2541   -4.0676   -2.3045 H   0  0  0  0  0  0  0  0  0  0  0  0
    6.4651   -2.6827   -1.0948 H   0  0  0  0  0  0  0  0  0  0  0  0
    7.8728   -4.4514   -2.2016 H   0  0  0  0  0  0  0  0  0  0  0  0
    6.3686   -5.3756   -2.5785 H   0  0  0  0  0  0  0  0  0  0  0  0
    6.6348   -3.7412   -3.2942 H   0  0  0  0  0  0  0  0  0  0  0  0
    7.6458   -4.8833    1.7123 H   0  0  0  0  0  0  0  0  0  0  0  0
    8.4715   -2.6983   -0.1507 H   0  0  0  0  0  0  0  0  0  0  0  0
    9.3491   -3.3574    2.7267 H   0  0  0  0  0  0  0  0  0  0  0  0
   10.1229   -3.9338    1.1964 H   0  0  0  0  0  0  0  0  0  0  0  0
   10.1245   -2.1759    1.5994 H   0  0  0  0  0  0  0  0  0  0  0  0
    7.0736   -0.4452   -0.0776 H   0  0  0  0  0  0  0  0  0  0  0  0
    8.4702    0.4415    2.4528 H   0  0  0  0  0  0  0  0  0  0  0  0
    6.1431    0.4702    3.1894 H   0  0  0  0  0  0  0  0  0  0  0  0
    6.6554    2.1691    2.8979 H   0  0  0  0  0  0  0  0  0  0  0  0
    5.6057    1.3189    1.6919 H   0  0  0  0  0  0  0  0  0  0  0  0
    6.5379    2.0245   -0.4283 H   0  0  0  0  0  0  0  0  0  0  0  0
    6.8731    4.1811   -1.2100 H   0  0  0  0  0  0  0  0  0  0  0  0
    9.8505    3.4537   -1.1493 H   0  0  0  0  0  0  0  0  0  0  0  0
    9.0709    4.8128   -2.0471 H   0  0  0  0  0  0  0  0  0  0  0  0
    8.6671    3.0986   -2.4671 H   0  0  0  0  0  0  0  0  0  0  0  0
    7.1771    5.6766    2.2568 H   0  0  0  0  0  0  0  0  0  0  0  0
    5.1016    6.2699    1.6277 H   0  0  0  0  0  0  0  0  0  0  0  0
    4.3639    5.3711   -1.7318 H   0  0  0  0  0  0  0  0  0  0  0  0
    5.0543    6.8623   -2.4310 H   0  0  0  0  0  0  0  0  0  0  0  0
    4.9203    3.8091   -0.2009 H   0  0  0  0  0  0  0  0  0  0  0  0
    4.9283    3.6956    1.5680 H   0  0  0  0  0  0  0  0  0  0  0  0
    2.0627    4.5764   -1.3695 H   0  0  0  0  0  0  0  0  0  0  0  0
    2.9919    3.1223   -0.9044 H   0  0  0  0  0  0  0  0  0  0  0  0
  1  2  1  0
  2  3  2  0
  2  4  1  0
  4  5  1  0
  5  6  1  0
  6  7  1  0
  7  8  1  0
  8  9  1  0
  9 10  2  0
 10 11  1  0
 11 12  2  0
 12 13  1  0
 13 14  2  0
 13 15  1  0
 15 16  1  0
 16 17  1  0
 17 18  1  0
 18 19  1  0
 19 20  1  0
 20 21  2  0
 20 22  1  0
 22 23  1  0
 22 24  1  0
 24 25  1  0
 25 26  2  0
 25 27  1  0
 27 28  1  0
 27 29  1  0
 29 30  1  0
 30 31  2  0
 30 32  1  0
 32 33  1  0
 32 34  1  0
 34 35  1  0
 35 36  2  0
 35 37  1  0
 37 38  1  0
 37 39  1  0
 39 40  1  0
 40 41  2  0
 40 42  1  0
 42 43  1  0
 42 44  1  0
 44 45  1  0
 45 46  2  0
 18 47  1  0
 47 48  2  0
 47 49  1  0
 49 50  1  0
 50 51  1  0
 50 52  1  0
 52 53  2  0
 52 54  1  0
 54 55  1  0
 55 56  1  0
 55 57  1  0
 57 58  2  0
 57 59  1  0
 59 60  1  0
 60 61  1  0
 60 62  1  0
 62 63  2  0
 62 64  1  0
 64 65  1  0
 65 66  1  0
 65 67  1  0
 67 68  2  0
 67 69  1  0
 69 70  1  0
 70 71  1  0
 70 72  1  0
 72 73  2  0
 72 74  1  0
 74 75  1  0
 75 76  1  0
 76 77  1  0
 76 78  2  0
 75 79  1  0
 79 80  1  0
 80 81  1  0
 45  5  1  0
 14  9  1  0
 81 11  1  0
  1 82  1  0
  1 83  1  0
  1 84  1  0
  4 85  1  0
  5 86  1  6
  6 87  1  0
  6 88  1  0
  8 89  1  0
  8 90  1  0
 10 91  1  0
 12 92  1  0
 14 93  1  0
 15 94  1  0
 15 95  1  0
 17 96  1  0
 17 97  1  0
 18 98  1  6
 19 99  1  0
 22100  1  6
 23101  1  0
 23102  1  0
 23103  1  0
 24104  1  0
 27105  1  6
 28106  1  0
 28107  1  0
 28108  1  0
 29109  1  0
 32110  1  6
 33111  1  0
 33112  1  0
 33113  1  0
 34114  1  0
 37115  1  1
 38116  1  0
 38117  1  0
 38118  1  0
 39119  1  0
 42120  1  6
 43121  1  0
 43122  1  0
 43123  1  0
 44124  1  0
 49125  1  0
 50126  1  1
 51127  1  0
 51128  1  0
 51129  1  0
 54130  1  0
 55131  1  1
 56132  1  0
 56133  1  0
 56134  1  0
 59135  1  0
 60136  1  6
 61137  1  0
 61138  1  0
 61139  1  0
 64140  1  0
 65141  1  1
 66142  1  0
 66143  1  0
 66144  1  0
 69145  1  0
 70146  1  6
 71147  1  0
 71148  1  0
 71149  1  0
 74150  1  0
 75151  1  1
 77152  1  0
 77153  1  0
 79154  1  0
 79155  1  0
 81156  1  0
 81157  1  0
M  END
