
     RDKit          3D

157159  0  0  0  0  0  0  0  0999 V2000
   -6.9064    8.0858   -2.3535 C   0  0  0  0  0  0  0  0  0  0  0  0
   -5.7630    7.2705   -1.8503 C   0  0  0  0  0  0  0  0  0  0  0  0
   -4.7798    7.0471   -2.6028 O   0  0  0  0  0  0  0  0  0  0  0  0
   -5.7892    6.7541   -0.5114 N   0  0  0  0  0  0  0  0  0  0  0  0
   -4.9549    5.6239   -0.1006 C   0  0  1  0  0  0  0  0  0  0  0  0
   -4.4743    5.8238    1.3488 C   0  0  0  0  0  0  0  0  0  0  0  0
   -3.4109    4.4412    1.9058 S   0  0  0  0  0  0  0  0  0  0  0  0
   -1.8463    5.0485    1.1588 C   0  0  0  0  0  0  0  0  0  0  0  0
   -0.9786    3.9595    0.5600 C   0  0  0  0  0  0  0  0  0  0  0  0
    0.3303    4.3026    0.1851 C   0  0  0  0  0  0  0  0  0  0  0  0
    1.1769    3.3662   -0.4251 C   0  0  0  0  0  0  0  0  0  0  0  0
    0.7144    2.0604   -0.6449 C   0  0  0  0  0  0  0  0  0  0  0  0
   -0.5958    1.7033   -0.2981 C   0  0  0  0  0  0  0  0  0  0  0  0
   -1.4407    2.6528    0.3000 C   0  0  0  0  0  0  0  0  0  0  0  0
   -1.0789    0.2993   -0.5431 C   0  0  0  0  0  0  0  0  0  0  0  0
   -0.4994   -0.7849    0.8079 S   0  0  0  0  0  0  0  0  0  0  0  0
   -0.3437   -2.2910   -0.2239 C   0  0  0  0  0  0  0  0  0  0  0  0
    0.1205   -3.5237    0.5740 C   0  0  2  0  0  0  0  0  0  0  0  0
   -0.8316   -3.8331    1.6492 N   0  0  0  0  0  0  0  0  0  0  0  0
   -1.8696   -4.8246    1.5507 C   0  0  0  0  0  0  0  0  0  0  0  0
   -2.4278   -5.2226    2.6070 O   0  0  0  0  0  0  0  0  0  0  0  0
   -2.3352   -5.3849    0.2236 C   0  0  1  0  0  0  0  0  0  0  0  0
   -1.8113   -6.8142    0.0447 C   0  0  0  0  0  0  0  0  0  0  0  0
   -3.8020   -5.3613    0.1475 N   0  0  0  0  0  0  0  0  0  0  0  0
   -4.5308   -4.1212    0.0995 C   0  0  0  0  0  0  0  0  0  0  0  0
   -3.9726   -3.0483    0.4610 O   0  0  0  0  0  0  0  0  0  0  0  0
   -5.9506   -4.0730   -0.4022 C   0  0  1  0  0  0  0  0  0  0  0  0
   -6.0421   -4.6134   -1.8288 C   0  0  0  0  0  0  0  0  0  0  0  0
   -6.8339   -4.8395    0.4888 N   0  0  0  0  0  0  0  0  0  0  0  0
   -8.1539   -4.4293    0.8827 C   0  0  0  0  0  0  0  0  0  0  0  0
   -8.7109   -5.0256    1.8487 O   0  0  0  0  0  0  0  0  0  0  0  0
   -8.9193   -3.3399    0.1640 C   0  0  1  0  0  0  0  0  0  0  0  0
  -10.3284   -3.8163   -0.2023 C   0  0  0  0  0  0  0  0  0  0  0  0
   -9.0007   -2.1498    1.0087 N   0  0  0  0  0  0  0  0  0  0  0  0
   -7.9888   -1.1374    0.9581 C   0  0  0  0  0  0  0  0  0  0  0  0
   -6.8760   -1.3445    1.5145 O   0  0  0  0  0  0  0  0  0  0  0  0
   -8.2630    0.2005    0.3236 C   0  0  1  0  0  0  0  0  0  0  0  0
   -9.2391    0.0719   -0.8524 C   0  0  0  0  0  0  0  0  0  0  0  0
   -8.8022    1.1266    1.3232 N   0  0  0  0  0  0  0  0  0  0  0  0
   -8.6653    2.5620    1.2845 C   0  0  0  0  0  0  0  0  0  0  0  0
   -9.1230    3.2346    2.2469 O   0  0  0  0  0  0  0  0  0  0  0  0
   -7.9918    3.2974    0.1421 C   0  0  1  0  0  0  0  0  0  0  0  0
   -8.9248    4.3704   -0.4285 C   0  0  0  0  0  0  0  0  0  0  0  0
   -6.7511    3.9249    0.6049 N   0  0  0  0  0  0  0  0  0  0  0  0
   -5.7303    4.3468   -0.3150 C   0  0  0  0  0  0  0  0  0  0  0  0
   -5.5362    3.6908   -1.3782 O   0  0  0  0  0  0  0  0  0  0  0  0
    1.5129   -3.3149    1.1382 C   0  0  0  0  0  0  0  0  0  0  0  0
    1.6668   -2.5254    2.1084 O   0  0  0  0  0  0  0  0  0  0  0  0
    2.6825   -3.9223    0.5612 N   0  0  0  0  0  0  0  0  0  0  0  0
    2.6932   -5.1683   -0.2129 C   0  0  2  0  0  0  0  0  0  0  0  0
    2.4081   -6.3553    0.7137 C   0  0  0  0  0  0  0  0  0  0  0  0
    4.0088   -5.2785   -0.9482 C   0  0  0  0  0  0  0  0  0  0  0  0
    4.2052   -4.5105   -1.9284 O   0  0  0  0  0  0  0  0  0  0  0  0
    5.0603   -6.1640   -0.5225 N   0  0  0  0  0  0  0  0  0  0  0  0
    6.4608   -5.8829   -0.8455 C   0  0  2  0  0  0  0  0  0  0  0  0
    7.3427   -7.1038   -0.5667 C   0  0  0  0  0  0  0  0  0  0  0  0
    6.9358   -4.6994   -0.0432 C   0  0  0  0  0  0  0  0  0  0  0  0
    6.9959   -4.7758    1.2155 O   0  0  0  0  0  0  0  0  0  0  0  0
    7.2497   -3.4626   -0.7012 N   0  0  0  0  0  0  0  0  0  0  0  0
    8.5481   -2.7878   -0.5783 C   0  0  2  0  0  0  0  0  0  0  0  0
    9.6937   -3.7624   -0.8728 C   0  0  0  0  0  0  0  0  0  0  0  0
    8.7238   -2.1438    0.7850 C   0  0  0  0  0  0  0  0  0  0  0  0
    8.8298   -2.8877    1.7971 O   0  0  0  0  0  0  0  0  0  0  0  0
    8.8392   -0.7177    0.9745 N   0  0  0  0  0  0  0  0  0  0  0  0
    8.6850    0.3036   -0.0723 C   0  0  2  0  0  0  0  0  0  0  0  0
    9.9993    0.4469   -0.8461 C   0  0  0  0  0  0  0  0  0  0  0  0
    8.2992    1.6421    0.5226 C   0  0  0  0  0  0  0  0  0  0  0  0
    8.1174    1.7663    1.7628 O   0  0  0  0  0  0  0  0  0  0  0  0
    8.1450    2.7874   -0.3305 N   0  0  0  0  0  0  0  0  0  0  0  0
    9.0095    3.9730   -0.2262 C   0  0  2  0  0  0  0  0  0  0  0  0
    9.4957    4.2692    1.2007 C   0  0  0  0  0  0  0  0  0  0  0  0
    8.3211    5.1864   -0.8109 C   0  0  0  0  0  0  0  0  0  0  0  0
    8.8005    5.7000   -1.8591 O   0  0  0  0  0  0  0  0  0  0  0  0
    7.1939    5.8286   -0.1887 N   0  0  0  0  0  0  0  0  0  0  0  0
    6.1649    5.1409    0.5978 C   0  0  1  0  0  0  0  0  0  0  0  0
    5.6989    6.0373    1.7184 C   0  0  0  0  0  0  0  0  0  0  0  0
    5.0735    7.2940    1.4475 N   0  0  0  0  0  0  0  0  0  0  0  0
    5.8610    5.6713    2.9135 O   0  0  0  0  0  0  0  0  0  0  0  0
    5.0097    4.7324   -0.3270 C   0  0  0  0  0  0  0  0  0  0  0  0
    3.6511    3.9241    0.5958 S   0  0  0  0  0  0  0  0  0  0  0  0
    2.5574    3.7763   -0.8562 C   0  0  0  0  0  0  0  0  0  0  0  0
   -6.7297    8.4042   -3.4050 H   0  0  0  0  0  0  0  0  0  0  0  0
   -7.8392    7.4838   -2.3100 H   0  0  0  0  0  0  0  0  0  0  0  0
   -7.0260    8.9900   -1.7232 H   0  0  0  0  0  0  0  0  0  0  0  0
   -6.5872    7.0336    0.1055 H   0  0  0  0  0  0  0  0  0  0  0  0
   -4.0525    5.5805   -0.7453 H   0  0  0  0  0  0  0  0  0  0  0  0
   -3.9126    6.7811    1.4289 H   0  0  0  0  0  0  0  0  0  0  0  0
   -5.3383    5.9097    2.0381 H   0  0  0  0  0  0  0  0  0  0  0  0
   -1.2830    5.5515    1.9716 H   0  0  0  0  0  0  0  0  0  0  0  0
   -2.0339    5.8031    0.3675 H   0  0  0  0  0  0  0  0  0  0  0  0
    0.6897    5.3112    0.3546 H   0  0  0  0  0  0  0  0  0  0  0  0
    1.3652    1.3262   -1.1084 H   0  0  0  0  0  0  0  0  0  0  0  0
   -2.4631    2.3704    0.5334 H   0  0  0  0  0  0  0  0  0  0  0  0
   -2.1876    0.2573   -0.5823 H   0  0  0  0  0  0  0  0  0  0  0  0
   -0.7021   -0.0465   -1.5293 H   0  0  0  0  0  0  0  0  0  0  0  0
   -1.3301   -2.4999   -0.6889 H   0  0  0  0  0  0  0  0  0  0  0  0
    0.3839   -2.0946   -1.0396 H   0  0  0  0  0  0  0  0  0  0  0  0
    0.1455   -4.3647   -0.1334 H   0  0  0  0  0  0  0  0  0  0  0  0
   -0.7585   -3.3041    2.5492 H   0  0  0  0  0  0  0  0  0  0  0  0
   -1.9536   -4.7790   -0.6221 H   0  0  0  0  0  0  0  0  0  0  0  0
   -0.6999   -6.8208    0.0830 H   0  0  0  0  0  0  0  0  0  0  0  0
   -2.2065   -7.4833    0.8410 H   0  0  0  0  0  0  0  0  0  0  0  0
   -2.1223   -7.2087   -0.9444 H   0  0  0  0  0  0  0  0  0  0  0  0
   -4.3166   -6.2443   -0.0686 H   0  0  0  0  0  0  0  0  0  0  0  0
   -6.2583   -3.0061   -0.4220 H   0  0  0  0  0  0  0  0  0  0  0  0
   -7.0704   -4.4723   -2.2263 H   0  0  0  0  0  0  0  0  0  0  0  0
   -5.3346   -4.0705   -2.4873 H   0  0  0  0  0  0  0  0  0  0  0  0
   -5.8072   -5.6983   -1.8580 H   0  0  0  0  0  0  0  0  0  0  0  0
   -6.4869   -5.7505    0.8681 H   0  0  0  0  0  0  0  0  0  0  0  0
   -8.4277   -3.0755   -0.7933 H   0  0  0  0  0  0  0  0  0  0  0  0
  -10.9164   -4.0628    0.7064 H   0  0  0  0  0  0  0  0  0  0  0  0
  -10.2702   -4.7190   -0.8494 H   0  0  0  0  0  0  0  0  0  0  0  0
  -10.8627   -3.0210   -0.7653 H   0  0  0  0  0  0  0  0  0  0  0  0
   -9.7487   -2.0693    1.7363 H   0  0  0  0  0  0  0  0  0  0  0  0
   -7.2892    0.5763   -0.0584 H   0  0  0  0  0  0  0  0  0  0  0  0
   -8.8202   -0.6146   -1.6176 H   0  0  0  0  0  0  0  0  0  0  0  0
  -10.2190   -0.3242   -0.5085 H   0  0  0  0  0  0  0  0  0  0  0  0
   -9.4147    1.0583   -1.3272 H   0  0  0  0  0  0  0  0  0  0  0  0
   -9.3602    0.7295    2.1134 H   0  0  0  0  0  0  0  0  0  0  0  0
   -7.7601    2.6070   -0.6909 H   0  0  0  0  0  0  0  0  0  0  0  0
   -8.4387    4.8870   -1.2847 H   0  0  0  0  0  0  0  0  0  0  0  0
   -9.8638    3.9034   -0.7918 H   0  0  0  0  0  0  0  0  0  0  0  0
   -9.1692    5.1303    0.3438 H   0  0  0  0  0  0  0  0  0  0  0  0
   -6.6314    4.1240    1.6267 H   0  0  0  0  0  0  0  0  0  0  0  0
    3.6055   -3.5070    0.8379 H   0  0  0  0  0  0  0  0  0  0  0  0
    1.9131   -5.1459   -1.0011 H   0  0  0  0  0  0  0  0  0  0  0  0
    2.3868   -7.3022    0.1384 H   0  0  0  0  0  0  0  0  0  0  0  0
    3.1782   -6.4214    1.5130 H   0  0  0  0  0  0  0  0  0  0  0  0
    1.4196   -6.2247    1.2017 H   0  0  0  0  0  0  0  0  0  0  0  0
    4.8109   -7.0800   -0.0800 H   0  0  0  0  0  0  0  0  0  0  0  0
    6.5455   -5.6512   -1.9300 H   0  0  0  0  0  0  0  0  0  0  0  0
    8.4018   -6.8743   -0.8103 H   0  0  0  0  0  0  0  0  0  0  0  0
    7.2758   -7.4087    0.5004 H   0  0  0  0  0  0  0  0  0  0  0  0
    7.0122   -7.9572   -1.1972 H   0  0  0  0  0  0  0  0  0  0  0  0
    6.6460   -3.1832   -1.5076 H   0  0  0  0  0  0  0  0  0  0  0  0
    8.5929   -2.0155   -1.3724 H   0  0  0  0  0  0  0  0  0  0  0  0
    9.7272   -4.5792   -0.1204 H   0  0  0  0  0  0  0  0  0  0  0  0
   10.6670   -3.2243   -0.8596 H   0  0  0  0  0  0  0  0  0  0  0  0
    9.5549   -4.2123   -1.8811 H   0  0  0  0  0  0  0  0  0  0  0  0
    9.1882   -0.4190    1.9122 H   0  0  0  0  0  0  0  0  0  0  0  0
    7.8706    0.0082   -0.7676 H   0  0  0  0  0  0  0  0  0  0  0  0
   10.3645   -0.5391   -1.2030 H   0  0  0  0  0  0  0  0  0  0  0  0
    9.8553    1.0993   -1.7322 H   0  0  0  0  0  0  0  0  0  0  0  0
   10.7861    0.8897   -0.1969 H   0  0  0  0  0  0  0  0  0  0  0  0
    7.7574    2.5922   -1.2790 H   0  0  0  0  0  0  0  0  0  0  0  0
    9.9227    3.7730   -0.8304 H   0  0  0  0  0  0  0  0  0  0  0  0
   10.0625    5.2251    1.2249 H   0  0  0  0  0  0  0  0  0  0  0  0
    8.6559    4.3563    1.9169 H   0  0  0  0  0  0  0  0  0  0  0  0
   10.1802    3.4677    1.5478 H   0  0  0  0  0  0  0  0  0  0  0  0
    6.9578    6.7820   -0.5469 H   0  0  0  0  0  0  0  0  0  0  0  0
    6.5712    4.2123    1.0519 H   0  0  0  0  0  0  0  0  0  0  0  0
    4.7769    7.9069    2.2366 H   0  0  0  0  0  0  0  0  0  0  0  0
    4.9195    7.6193    0.4708 H   0  0  0  0  0  0  0  0  0  0  0  0
    5.3961    4.0105   -1.0743 H   0  0  0  0  0  0  0  0  0  0  0  0
    4.6206    5.6192   -0.8692 H   0  0  0  0  0  0  0  0  0  0  0  0
    2.9898    3.0379   -1.5664 H   0  0  0  0  0  0  0  0  0  0  0  0
    2.4871    4.7537   -1.3795 H   0  0  0  0  0  0  0  0  0  0  0  0
  1  2  1  0
  2  3  2  0
  2  4  1  0
  4  5  1  0
  5  6  1  0
  6  7  1  0
  7  8  1  0
  8  9  1  0
  9 10  2  0
 10 11  1  0
 11 12  2  0
 12 13  1  0
 13 14  2  0
 13 15  1  0
 15 16  1  0
 16 17  1  0
 17 18  1  0
 18 19  1  0
 19 20  1  0
 20 21  2  0
 20 22  1  0
 22 23  1  0
 22 24  1  0
 24 25  1  0
 25 26  2  0
 25 27  1  0
 27 28  1  0
 27 29  1  0
 29 30  1  0
 30 31  2  0
 30 32  1  0
 32 33  1  0
 32 34  1  0
 34 35  1  0
 35 36  2  0
 35 37  1  0
 37 38  1  0
 37 39  1  0
 39 40  1  0
 40 41  2  0
 40 42  1  0
 42 43  1  0
 42 44  1  0
 44 45  1  0
 45 46  2  0
 18 47  1  0
 47 48  2  0
 47 49  1  0
 49 50  1  0
 50 51  1  0
 50 52  1  0
 52 53  2  0
 52 54  1  0
 54 55  1  0
 55 56  1  0
 55 57  1  0
 57 58  2  0
 57 59  1  0
 59 60  1  0
 60 61  1  0
 60 62  1  0
 62 63  2  0
 62 64  1  0
 64 65  1  0
 65 66  1  0
 65 67  1  0
 67 68  2  0
 67 69  1  0
 69 70  1  0
 70 71  1  0
 70 72  1  0
 72 73  2  0
 72 74  1  0
 74 75  1  0
 75 76  1  0
 76 77  1  0
 76 78  2  0
 75 79  1  0
 79 80  1  0
 80 81  1  0
 45  5  1  0
 14  9  1  0
 81 11  1  0
  1 82  1  0
  1 83  1  0
  1 84  1  0
  4 85  1  0
  5 86  1  6
  6 87  1  0
  6 88  1  0
  8 89  1  0
  8 90  1  0
 10 91  1  0
 12 92  1  0
 14 93  1  0
 15 94  1  0
 15 95  1  0
 17 96  1  0
 17 97  1  0
 18 98  1  6
 19 99  1  0
 22100  1  6
 23101  1  0
 23102  1  0
 23103  1  0
 24104  1  0
 27105  1  6
 28106  1  0
 28107  1  0
 28108  1  0
 29109  1  0
 32110  1  6
 33111  1  0
 33112  1  0
 33113  1  0
 34114  1  0
 37115  1  6
 38116  1  0
 38117  1  0
 38118  1  0
 39119  1  0
 42120  1  6
 43121  1  0
 43122  1  0
 43123  1  0
 44124  1  0
 49125  1  0
 50126  1  6
 51127  1  0
 51128  1  0
 51129  1  0
 54130  1  0
 55131  1  6
 56132  1  0
 56133  1  0
 56134  1  0
 59135  1  0
 60136  1  6
 61137  1  0
 61138  1  0
 61139  1  0
 64140  1  0
 65141  1  6
 66142  1  0
 66143  1  0
 66144  1  0
 69145  1  0
 70146  1  6
 71147  1  0
 71148  1  0
 71149  1  0
 74150  1  0
 75151  1  1
 77152  1  0
 77153  1  0
 79154  1  0
 79155  1  0
 81156  1  0
 81157  1  0
M  END
