
     RDKit          3D

 97 99  0  0  0  0  0  0  0  0999 V2000
    8.3137    0.9027    0.1715 C   0  0  0  0  0  0  0  0  0  0  0  0
    7.0680    0.8932   -0.6673 C   0  0  0  0  0  0  0  0  0  0  0  0
    7.1732    0.9697   -1.9219 O   0  0  0  0  0  0  0  0  0  0  0  0
    5.7634    0.7903   -0.0857 N   0  0  0  0  0  0  0  0  0  0  0  0
    5.5187    0.5823    1.3473 C   0  0  1  0  0  0  0  0  0  0  0  0
    4.1702    1.2043    1.7420 C   0  0  0  0  0  0  0  0  0  0  0  0
    4.2378    3.0348    1.7431 S   0  0  0  0  0  0  0  0  0  0  0  0
    3.7097    3.3741    0.0208 C   0  0  0  0  0  0  0  0  0  0  0  0
    2.3662    2.7717   -0.2926 C   0  0  0  0  0  0  0  0  0  0  0  0
    2.2331    1.8832   -1.3700 C   0  0  0  0  0  0  0  0  0  0  0  0
    1.0065    1.2482   -1.6266 C   0  0  0  0  0  0  0  0  0  0  0  0
   -0.1044    1.5645   -0.8331 C   0  0  0  0  0  0  0  0  0  0  0  0
    0.0075    2.4926    0.2131 C   0  0  0  0  0  0  0  0  0  0  0  0
    1.2461    3.0941    0.4756 C   0  0  0  0  0  0  0  0  0  0  0  0
   -1.2040    2.8627    1.0294 C   0  0  0  0  0  0  0  0  0  0  0  0
   -2.3755    3.8211   -0.0055 S   0  0  0  0  0  0  0  0  0  0  0  0
   -3.6837    2.5422   -0.1057 C   0  0  0  0  0  0  0  0  0  0  0  0
   -4.6229    2.5920    1.1152 C   0  0  1  0  0  0  0  0  0  0  0  0
   -5.8106    3.5282    0.9663 C   0  0  0  0  0  0  0  0  0  0  0  0
   -5.8975    4.5071   -0.0748 N   0  0  0  0  0  0  0  0  0  0  0  0
   -6.7359    3.4730    1.8267 O   0  0  0  0  0  0  0  0  0  0  0  0
   -5.0288    1.2294    1.4962 N   0  0  0  0  0  0  0  0  0  0  0  0
   -6.2958    0.6267    1.1996 C   0  0  0  0  0  0  0  0  0  0  0  0
   -7.0731    0.3677    2.1552 O   0  0  0  0  0  0  0  0  0  0  0  0
   -6.6902    0.1907   -0.1936 C   0  0  1  0  0  0  0  0  0  0  0  0
   -7.8893    1.0081   -0.6845 C   0  0  0  0  0  0  0  0  0  0  0  0
   -5.5725    0.2955   -1.1379 N   0  0  0  0  0  0  0  0  0  0  0  0
   -4.4932   -0.6498   -1.2232 C   0  0  0  0  0  0  0  0  0  0  0  0
   -3.7605   -0.6450   -2.2540 O   0  0  0  0  0  0  0  0  0  0  0  0
   -4.2076   -1.6718   -0.1465 C   0  0  1  0  0  0  0  0  0  0  0  0
   -4.3914   -3.0790   -0.7319 C   0  0  0  0  0  0  0  0  0  0  0  0
   -2.8460   -1.5017    0.3744 N   0  0  0  0  0  0  0  0  0  0  0  0
   -2.3409   -2.2617    1.4859 C   0  0  0  0  0  0  0  0  0  0  0  0
   -3.1454   -2.8811    2.2356 O   0  0  0  0  0  0  0  0  0  0  0  0
   -0.8632   -2.3095    1.8088 C   0  0  1  0  0  0  0  0  0  0  0  0
   -0.4021   -3.7517    2.0821 C   0  0  0  0  0  0  0  0  0  0  0  0
   -0.0281   -1.7073    0.7564 N   0  0  0  0  0  0  0  0  0  0  0  0
    0.1381   -2.2907   -0.5472 C   0  0  0  0  0  0  0  0  0  0  0  0
   -0.8647   -2.7196   -1.1693 O   0  0  0  0  0  0  0  0  0  0  0  0
    1.5090   -2.5631   -1.1088 C   0  0  1  0  0  0  0  0  0  0  0  0
    1.6031   -2.3189   -2.6390 C   0  0  0  0  0  0  0  0  0  0  0  0
    2.2936   -0.6993   -3.1427 S   0  0  0  0  0  0  0  0  0  0  0  0
    0.8258    0.3498   -2.8278 C   0  0  0  0  0  0  0  0  0  0  0  0
    2.5517   -1.8378   -0.3789 N   0  0  0  0  0  0  0  0  0  0  0  0
    3.4302   -2.5123    0.5244 C   0  0  0  0  0  0  0  0  0  0  0  0
    3.0201   -2.7921    1.6861 O   0  0  0  0  0  0  0  0  0  0  0  0
    4.8556   -2.8438    0.1375 C   0  0  1  0  0  0  0  0  0  0  0  0
    5.0273   -2.9775   -1.3799 C   0  0  0  0  0  0  0  0  0  0  0  0
    5.8196   -1.8535    0.6425 N   0  0  0  0  0  0  0  0  0  0  0  0
    5.5257   -0.8953    1.6660 C   0  0  0  0  0  0  0  0  0  0  0  0
    5.3584   -1.2912    2.8511 O   0  0  0  0  0  0  0  0  0  0  0  0
    8.3908   -0.0414    0.7474 H   0  0  0  0  0  0  0  0  0  0  0  0
    9.2129    1.0115   -0.4609 H   0  0  0  0  0  0  0  0  0  0  0  0
    8.2869    1.7528    0.8784 H   0  0  0  0  0  0  0  0  0  0  0  0
    4.9529    0.7009   -0.7337 H   0  0  0  0  0  0  0  0  0  0  0  0
    6.3141    1.0712    1.9510 H   0  0  0  0  0  0  0  0  0  0  0  0
    3.9172    0.9035    2.7759 H   0  0  0  0  0  0  0  0  0  0  0  0
    3.3593    0.8219    1.1015 H   0  0  0  0  0  0  0  0  0  0  0  0
    4.4930    3.0267   -0.6855 H   0  0  0  0  0  0  0  0  0  0  0  0
    3.6450    4.4689   -0.1066 H   0  0  0  0  0  0  0  0  0  0  0  0
    3.0901    1.6814   -1.9943 H   0  0  0  0  0  0  0  0  0  0  0  0
   -1.0628    1.1081   -1.0628 H   0  0  0  0  0  0  0  0  0  0  0  0
    1.3444    3.8158    1.2757 H   0  0  0  0  0  0  0  0  0  0  0  0
   -1.6584    1.9534    1.4686 H   0  0  0  0  0  0  0  0  0  0  0  0
   -0.9198    3.5013    1.8878 H   0  0  0  0  0  0  0  0  0  0  0  0
   -3.2067    1.5432   -0.1784 H   0  0  0  0  0  0  0  0  0  0  0  0
   -4.2526    2.6779   -1.0458 H   0  0  0  0  0  0  0  0  0  0  0  0
   -4.0369    2.9927    1.9679 H   0  0  0  0  0  0  0  0  0  0  0  0
   -5.0778    4.7895   -0.6566 H   0  0  0  0  0  0  0  0  0  0  0  0
   -6.7890    5.0418   -0.1937 H   0  0  0  0  0  0  0  0  0  0  0  0
   -4.4954    0.7936    2.2804 H   0  0  0  0  0  0  0  0  0  0  0  0
   -7.0195   -0.8745   -0.1491 H   0  0  0  0  0  0  0  0  0  0  0  0
   -8.7591    0.8402   -0.0177 H   0  0  0  0  0  0  0  0  0  0  0  0
   -8.1707    0.6864   -1.7077 H   0  0  0  0  0  0  0  0  0  0  0  0
   -7.6461    2.0889   -0.7006 H   0  0  0  0  0  0  0  0  0  0  0  0
   -5.6372    0.9931   -1.9141 H   0  0  0  0  0  0  0  0  0  0  0  0
   -4.9112   -1.5586    0.6948 H   0  0  0  0  0  0  0  0  0  0  0  0
   -4.3024   -3.8408    0.0695 H   0  0  0  0  0  0  0  0  0  0  0  0
   -5.3987   -3.1730   -1.1892 H   0  0  0  0  0  0  0  0  0  0  0  0
   -3.6255   -3.2776   -1.5072 H   0  0  0  0  0  0  0  0  0  0  0  0
   -2.2915   -0.6594    0.0782 H   0  0  0  0  0  0  0  0  0  0  0  0
   -0.7167   -1.7328    2.7462 H   0  0  0  0  0  0  0  0  0  0  0  0
   -0.8624   -4.1288    3.0192 H   0  0  0  0  0  0  0  0  0  0  0  0
   -0.6831   -4.4232    1.2393 H   0  0  0  0  0  0  0  0  0  0  0  0
    0.6996   -3.7857    2.2077 H   0  0  0  0  0  0  0  0  0  0  0  0
    0.4517   -0.7970    0.9730 H   0  0  0  0  0  0  0  0  0  0  0  0
    1.6708   -3.6492   -0.9574 H   0  0  0  0  0  0  0  0  0  0  0  0
    2.2947   -3.0751   -3.0622 H   0  0  0  0  0  0  0  0  0  0  0  0
    0.6318   -2.4925   -3.1430 H   0  0  0  0  0  0  0  0  0  0  0  0
   -0.0910   -0.2766   -2.7280 H   0  0  0  0  0  0  0  0  0  0  0  0
    0.6777    1.0000   -3.7161 H   0  0  0  0  0  0  0  0  0  0  0  0
    2.5567   -0.7888   -0.3638 H   0  0  0  0  0  0  0  0  0  0  0  0
    5.1088   -3.8299    0.5894 H   0  0  0  0  0  0  0  0  0  0  0  0
    6.0637   -3.3070   -1.6018 H   0  0  0  0  0  0  0  0  0  0  0  0
    4.3258   -3.7312   -1.7883 H   0  0  0  0  0  0  0  0  0  0  0  0
    4.8485   -1.9965   -1.8705 H   0  0  0  0  0  0  0  0  0  0  0  0
    6.8331   -1.9710    0.3785 H   0  0  0  0  0  0  0  0  0  0  0  0
  1  2  1  0
  2  3  2  0
  2  4  1  0
  4  5  1  0
  5  6  1  0
  6  7  1  0
  7  8  1  0
  8  9  1  0
  9 10  1  0
 10 11  2  0
 11 12  1  0
 12 13  2  0
 13 14  1  0
 13 15  1  0
 15 16  1  0
 16 17  1  0
 17 18  1  0
 18 19  1  0
 19 20  1  0
 19 21  2  0
 18 22  1  0
 22 23  1  0
 23 24  2  0
 23 25  1  0
 25 26  1  0
 25 27  1  0
 27 28  1  0
 28 29  2  0
 28 30  1  0
 30 31  1  0
 30 32  1  0
 32 33  1  0
 33 34  2  0
 33 35  1  0
 35 36  1  0
 35 37  1  0
 37 38  1  0
 38 39  2  0
 38 40  1  0
 40 41  1  0
 41 42  1  0
 42 43  1  0
 40 44  1  0
 44 45  1  0
 45 46  2  0
 45 47  1  0
 47 48  1  0
 47 49  1  0
 49 50  1  0
 50 51  2  0
 50  5  1  0
 14  9  2  0
 43 11  1  0
  1 52  1  0
  1 53  1  0
  1 54  1  0
  4 55  1  0
  5 56  1  1
  6 57  1  0
  6 58  1  0
  8 59  1  0
  8 60  1  0
 10 61  1  0
 12 62  1  0
 14 63  1  0
 15 64  1  0
 15 65  1  0
 17 66  1  0
 17 67  1  0
 18 68  1  1
 20 69  1  0
 20 70  1  0
 22 71  1  0
 25 72  1  1
 26 73  1  0
 26 74  1  0
 26 75  1  0
 27 76  1  0
 30 77  1  1
 31 78  1  0
 31 79  1  0
 31 80  1  0
 32 81  1  0
 35 82  1  1
 36 83  1  0
 36 84  1  0
 36 85  1  0
 37 86  1  0
 40 87  1  6
 41 88  1  0
 41 89  1  0
 43 90  1  0
 43 91  1  0
 44 92  1  0
 47 93  1  1
 48 94  1  0
 48 95  1  0
 48 96  1  0
 49 97  1  0
M  END
