
     RDKit          3D

187189  0  0  0  0  0  0  0  0999 V2000
    7.2444    7.6266    1.1755 C   0  0  0  0  0  0  0  0  0  0  0  0
    8.1809    7.3115    0.0458 C   0  0  0  0  0  0  0  0  0  0  0  0
    9.2128    8.0235   -0.0821 O   0  0  0  0  0  0  0  0  0  0  0  0
    7.9322    6.2722   -0.9231 N   0  0  0  0  0  0  0  0  0  0  0  0
    7.1276    5.0574   -0.7356 C   0  0  2  0  0  0  0  0  0  0  0  0
    5.6102    5.3446   -0.8335 C   0  0  0  0  0  0  0  0  0  0  0  0
    4.7443    4.0879   -1.8485 S   0  0  0  0  0  0  0  0  0  0  0  0
    4.5779    2.8004   -0.5650 C   0  0  0  0  0  0  0  0  0  0  0  0
    3.1412    2.6682   -0.1534 C   0  0  0  0  0  0  0  0  0  0  0  0
    2.5919    3.5631    0.7763 C   0  0  0  0  0  0  0  0  0  0  0  0
    1.2562    3.4339    1.1827 C   0  0  0  0  0  0  0  0  0  0  0  0
    0.4784    2.3861    0.6725 C   0  0  0  0  0  0  0  0  0  0  0  0
    1.0167    1.4664   -0.2404 C   0  0  0  0  0  0  0  0  0  0  0  0
    2.3479    1.6370   -0.6718 C   0  0  0  0  0  0  0  0  0  0  0  0
    0.1172    0.3408   -0.7160 C   0  0  0  0  0  0  0  0  0  0  0  0
    0.9149   -0.9254   -1.7762 S   0  0  0  0  0  0  0  0  0  0  0  0
    2.0692   -1.6114   -0.5188 C   0  0  0  0  0  0  0  0  0  0  0  0
    1.7670   -3.0754   -0.1778 C   0  0  2  0  0  0  0  0  0  0  0  0
    1.7439   -3.8951   -1.4000 N   0  0  0  0  0  0  0  0  0  0  0  0
    2.6243   -4.9943   -1.6906 C   0  0  0  0  0  0  0  0  0  0  0  0
    2.2598   -5.8363   -2.5560 O   0  0  0  0  0  0  0  0  0  0  0  0
    3.9552   -5.1900   -0.9929 C   0  0  1  0  0  0  0  0  0  0  0  0
    3.8127   -6.3068    0.0502 C   0  0  0  0  0  0  0  0  0  0  0  0
    4.9998   -5.5404   -1.9648 N   0  0  0  0  0  0  0  0  0  0  0  0
    6.4124   -5.3287   -1.7664 C   0  0  0  0  0  0  0  0  0  0  0  0
    7.1870   -5.4926   -2.7513 O   0  0  0  0  0  0  0  0  0  0  0  0
    7.0074   -4.9579   -0.4225 C   0  0  1  0  0  0  0  0  0  0  0  0
    7.8641   -6.1084    0.1211 C   0  0  0  0  0  0  0  0  0  0  0  0
    7.7678   -3.7077   -0.5240 N   0  0  0  0  0  0  0  0  0  0  0  0
    9.1068   -3.6345   -1.0211 C   0  0  0  0  0  0  0  0  0  0  0  0
    9.3049   -3.5498   -2.2667 O   0  0  0  0  0  0  0  0  0  0  0  0
   10.2540   -3.5441   -0.0453 C   0  0  1  0  0  0  0  0  0  0  0  0
   11.6320   -3.6319   -0.7144 C   0  0  0  0  0  0  0  0  0  0  0  0
   10.1359   -2.3309    0.7708 N   0  0  0  0  0  0  0  0  0  0  0  0
   10.1524   -0.9950    0.2251 C   0  0  0  0  0  0  0  0  0  0  0  0
   10.3823   -0.8318   -1.0072 O   0  0  0  0  0  0  0  0  0  0  0  0
    9.8788    0.2358    1.0619 C   0  0  1  0  0  0  0  0  0  0  0  0
    9.8029   -0.0231    2.5699 C   0  0  0  0  0  0  0  0  0  0  0  0
   10.9159    1.2416    0.8004 N   0  0  0  0  0  0  0  0  0  0  0  0
   10.7570    2.5134    0.1360 C   0  0  0  0  0  0  0  0  0  0  0  0
   11.7580    3.2779    0.0733 O   0  0  0  0  0  0  0  0  0  0  0  0
    9.4671    2.9948   -0.5012 C   0  0  1  0  0  0  0  0  0  0  0  0
    8.9954    2.0527   -1.6234 C   0  0  0  0  0  0  0  0  0  0  0  0
    8.4315    3.2041    0.5183 N   0  0  0  0  0  0  0  0  0  0  0  0
    7.5223    4.3179    0.5290 C   0  0  0  0  0  0  0  0  0  0  0  0
    7.0283    4.6786    1.6331 O   0  0  0  0  0  0  0  0  0  0  0  0
    0.4788   -3.2066    0.6022 C   0  0  0  0  0  0  0  0  0  0  0  0
    0.3686   -2.6293    1.7212 O   0  0  0  0  0  0  0  0  0  0  0  0
   -0.5935   -4.0271    0.1303 N   0  0  0  0  0  0  0  0  0  0  0  0
   -1.0960   -5.1441    0.9360 C   0  0  2  0  0  0  0  0  0  0  0  0
   -0.0403   -6.2482    1.0217 C   0  0  0  0  0  0  0  0  0  0  0  0
   -2.3638   -5.6866    0.3405 C   0  0  0  0  0  0  0  0  0  0  0  0
   -2.4127   -6.0061   -0.8775 O   0  0  0  0  0  0  0  0  0  0  0  0
   -3.5288   -5.8115    1.1573 N   0  0  0  0  0  0  0  0  0  0  0  0
   -4.8041   -5.2342    0.7416 C   0  0  2  0  0  0  0  0  0  0  0  0
   -4.8147   -3.7408    1.0696 C   0  0  0  0  0  0  0  0  0  0  0  0
   -5.9580   -5.9273    1.4296 C   0  0  0  0  0  0  0  0  0  0  0  0
   -5.9745   -5.9439    2.6923 O   0  0  0  0  0  0  0  0  0  0  0  0
   -7.0500   -6.5458    0.7248 N   0  0  0  0  0  0  0  0  0  0  0  0
   -7.1711   -6.7799   -0.7227 C   0  0  2  0  0  0  0  0  0  0  0  0
   -6.1575   -7.8428   -1.1759 C   0  0  0  0  0  0  0  0  0  0  0  0
   -7.0986   -5.4887   -1.5208 C   0  0  0  0  0  0  0  0  0  0  0  0
   -6.2975   -5.4058   -2.4925 O   0  0  0  0  0  0  0  0  0  0  0  0
   -7.9030   -4.3387   -1.2026 N   0  0  0  0  0  0  0  0  0  0  0  0
   -9.0963   -4.3523   -0.3526 C   0  0  2  0  0  0  0  0  0  0  0  0
  -10.3369   -4.0348   -1.1921 C   0  0  0  0  0  0  0  0  0  0  0  0
   -8.9178   -3.3987    0.8060 C   0  0  0  0  0  0  0  0  0  0  0  0
   -9.1296   -3.8128    1.9754 O   0  0  0  0  0  0  0  0  0  0  0  0
   -8.3916   -2.0742    0.6285 N   0  0  0  0  0  0  0  0  0  0  0  0
   -9.1425   -0.9953   -0.0166 C   0  0  2  0  0  0  0  0  0  0  0  0
   -8.2279   -0.2719   -1.0093 C   0  0  0  0  0  0  0  0  0  0  0  0
   -9.7114   -0.0789    1.0400 C   0  0  0  0  0  0  0  0  0  0  0  0
  -10.3837   -0.5730    1.9834 O   0  0  0  0  0  0  0  0  0  0  0  0
   -9.5141    1.3402    1.0003 N   0  0  0  0  0  0  0  0  0  0  0  0
  -10.3331    2.2762    0.2139 C   0  0  2  0  0  0  0  0  0  0  0  0
  -11.5655    1.5978   -0.4126 C   0  0  0  0  0  0  0  0  0  0  0  0
   -9.4687    2.9642   -0.8172 C   0  0  0  0  0  0  0  0  0  0  0  0
   -9.8624    3.0915   -2.0103 O   0  0  0  0  0  0  0  0  0  0  0  0
   -8.1527    3.4147   -0.4661 N   0  0  0  0  0  0  0  0  0  0  0  0
   -7.8602    4.7466    0.0740 C   0  0  2  0  0  0  0  0  0  0  0  0
   -8.9247    5.2253    1.0659 C   0  0  0  0  0  0  0  0  0  0  0  0
   -7.7104    5.7407   -1.0577 C   0  0  0  0  0  0  0  0  0  0  0  0
   -8.6575    5.8803   -1.8755 O   0  0  0  0  0  0  0  0  0  0  0  0
   -6.5229    6.5331   -1.2396 N   0  0  0  0  0  0  0  0  0  0  0  0
   -5.5361    6.8163   -0.1913 C   0  0  2  0  0  0  0  0  0  0  0  0
   -5.1848    8.3076   -0.2064 C   0  0  0  0  0  0  0  0  0  0  0  0
   -4.3258    5.9382   -0.3797 C   0  0  0  0  0  0  0  0  0  0  0  0
   -4.4719    4.6888   -0.4883 O   0  0  0  0  0  0  0  0  0  0  0  0
   -3.0040    6.4911   -0.4508 N   0  0  0  0  0  0  0  0  0  0  0  0
   -2.0533    6.4863    0.6661 C   0  0  1  0  0  0  0  0  0  0  0  0
   -2.6357    5.8702    1.9199 C   0  0  0  0  0  0  0  0  0  0  0  0
   -2.9392    6.6833    3.0524 N   0  0  0  0  0  0  0  0  0  0  0  0
   -2.8930    4.6354    1.9546 O   0  0  0  0  0  0  0  0  0  0  0  0
   -0.7605    5.7815    0.2380 C   0  0  0  0  0  0  0  0  0  0  0  0
    0.5989    6.0976    1.4314 S   0  0  0  0  0  0  0  0  0  0  0  0
    0.6723    4.4187    2.1568 C   0  0  0  0  0  0  0  0  0  0  0  0
    6.2673    7.1241    1.0643 H   0  0  0  0  0  0  0  0  0  0  0  0
    7.0559    8.7202    1.2007 H   0  0  0  0  0  0  0  0  0  0  0  0
    7.7097    7.3197    2.1333 H   0  0  0  0  0  0  0  0  0  0  0  0
    8.5034    6.3152   -1.7983 H   0  0  0  0  0  0  0  0  0  0  0  0
    7.3675    4.3961   -1.5885 H   0  0  0  0  0  0  0  0  0  0  0  0
    5.4511    6.3240   -1.3324 H   0  0  0  0  0  0  0  0  0  0  0  0
    5.1210    5.4126    0.1613 H   0  0  0  0  0  0  0  0  0  0  0  0
    4.9496    1.8469   -0.9936 H   0  0  0  0  0  0  0  0  0  0  0  0
    5.1986    3.0080    0.3259 H   0  0  0  0  0  0  0  0  0  0  0  0
    3.2019    4.3493    1.1928 H   0  0  0  0  0  0  0  0  0  0  0  0
   -0.5529    2.2794    0.9964 H   0  0  0  0  0  0  0  0  0  0  0  0
    2.7830    0.9649   -1.3980 H   0  0  0  0  0  0  0  0  0  0  0  0
   -0.3375   -0.1698    0.1636 H   0  0  0  0  0  0  0  0  0  0  0  0
   -0.7147    0.7839   -1.3041 H   0  0  0  0  0  0  0  0  0  0  0  0
    2.0710   -1.0055    0.4129 H   0  0  0  0  0  0  0  0  0  0  0  0
    3.0915   -1.5511   -0.9432 H   0  0  0  0  0  0  0  0  0  0  0  0
    2.5561   -3.4295    0.5171 H   0  0  0  0  0  0  0  0  0  0  0  0
    0.9876   -3.7146   -2.0981 H   0  0  0  0  0  0  0  0  0  0  0  0
    4.2479   -4.2412   -0.5112 H   0  0  0  0  0  0  0  0  0  0  0  0
    4.7819   -6.5173    0.5470 H   0  0  0  0  0  0  0  0  0  0  0  0
    3.4622   -7.2489   -0.4290 H   0  0  0  0  0  0  0  0  0  0  0  0
    3.0903   -5.9996    0.8314 H   0  0  0  0  0  0  0  0  0  0  0  0
    4.7206   -5.9327   -2.8927 H   0  0  0  0  0  0  0  0  0  0  0  0
    6.2139   -4.7852    0.3273 H   0  0  0  0  0  0  0  0  0  0  0  0
    8.2563   -5.8452    1.1259 H   0  0  0  0  0  0  0  0  0  0  0  0
    7.2433   -7.0248    0.2264 H   0  0  0  0  0  0  0  0  0  0  0  0
    8.7116   -6.3321   -0.5618 H   0  0  0  0  0  0  0  0  0  0  0  0
    7.2547   -2.8068   -0.3837 H   0  0  0  0  0  0  0  0  0  0  0  0
   10.1781   -4.4225    0.6312 H   0  0  0  0  0  0  0  0  0  0  0  0
   12.4335   -3.4679    0.0362 H   0  0  0  0  0  0  0  0  0  0  0  0
   11.7695   -4.6442   -1.1527 H   0  0  0  0  0  0  0  0  0  0  0  0
   11.7462   -2.8846   -1.5273 H   0  0  0  0  0  0  0  0  0  0  0  0
    9.9652   -2.4766    1.7890 H   0  0  0  0  0  0  0  0  0  0  0  0
    8.8792    0.6057    0.7665 H   0  0  0  0  0  0  0  0  0  0  0  0
    9.6227    0.9358    3.1083 H   0  0  0  0  0  0  0  0  0  0  0  0
    8.9486   -0.6958    2.8080 H   0  0  0  0  0  0  0  0  0  0  0  0
   10.7515   -0.4683    2.9497 H   0  0  0  0  0  0  0  0  0  0  0  0
   11.8837    1.0006    1.1233 H   0  0  0  0  0  0  0  0  0  0  0  0
    9.6915    3.9745   -0.9806 H   0  0  0  0  0  0  0  0  0  0  0  0
    8.3767    2.6002   -2.3619 H   0  0  0  0  0  0  0  0  0  0  0  0
    9.8675    1.6438   -2.1731 H   0  0  0  0  0  0  0  0  0  0  0  0
    8.3812    1.2171   -1.2440 H   0  0  0  0  0  0  0  0  0  0  0  0
    8.5143    2.6931    1.4256 H   0  0  0  0  0  0  0  0  0  0  0  0
   -0.9249   -3.8934   -0.8515 H   0  0  0  0  0  0  0  0  0  0  0  0
   -1.3139   -4.7808    1.9638 H   0  0  0  0  0  0  0  0  0  0  0  0
   -0.4419   -7.1254    1.5695 H   0  0  0  0  0  0  0  0  0  0  0  0
    0.8465   -5.8763    1.5728 H   0  0  0  0  0  0  0  0  0  0  0  0
    0.2798   -6.5663    0.0078 H   0  0  0  0  0  0  0  0  0  0  0  0
   -3.4451   -6.3385    2.0599 H   0  0  0  0  0  0  0  0  0  0  0  0
   -4.8849   -5.3258   -0.3543 H   0  0  0  0  0  0  0  0  0  0  0  0
   -3.9978   -3.2216    0.5220 H   0  0  0  0  0  0  0  0  0  0  0  0
   -4.6633   -3.5821    2.1594 H   0  0  0  0  0  0  0  0  0  0  0  0
   -5.7807   -3.2885    0.7652 H   0  0  0  0  0  0  0  0  0  0  0  0
   -7.8340   -6.9096    1.3131 H   0  0  0  0  0  0  0  0  0  0  0  0
   -8.1741   -7.2118   -0.9208 H   0  0  0  0  0  0  0  0  0  0  0  0
   -6.3171   -8.7791   -0.5998 H   0  0  0  0  0  0  0  0  0  0  0  0
   -5.1115   -7.5119   -1.0205 H   0  0  0  0  0  0  0  0  0  0  0  0
   -6.3026   -8.0783   -2.2535 H   0  0  0  0  0  0  0  0  0  0  0  0
   -7.6763   -3.4500   -1.7055 H   0  0  0  0  0  0  0  0  0  0  0  0
   -9.2666   -5.3615    0.0675 H   0  0  0  0  0  0  0  0  0  0  0  0
  -10.5883   -4.9140   -1.8220 H   0  0  0  0  0  0  0  0  0  0  0  0
  -11.2053   -3.8121   -0.5355 H   0  0  0  0  0  0  0  0  0  0  0  0
  -10.1521   -3.1815   -1.8792 H   0  0  0  0  0  0  0  0  0  0  0  0
   -7.6048   -1.7872    1.2539 H   0  0  0  0  0  0  0  0  0  0  0  0
  -10.0028   -1.4062   -0.5800 H   0  0  0  0  0  0  0  0  0  0  0  0
   -7.4320    0.2889   -0.4744 H   0  0  0  0  0  0  0  0  0  0  0  0
   -8.8149    0.4248   -1.6426 H   0  0  0  0  0  0  0  0  0  0  0  0
   -7.7448   -1.0081   -1.6855 H   0  0  0  0  0  0  0  0  0  0  0  0
   -8.8483    1.7475    1.6967 H   0  0  0  0  0  0  0  0  0  0  0  0
  -10.7176    3.0513    0.9075 H   0  0  0  0  0  0  0  0  0  0  0  0
  -12.2064    2.3551   -0.9121 H   0  0  0  0  0  0  0  0  0  0  0  0
  -12.1707    1.1047    0.3756 H   0  0  0  0  0  0  0  0  0  0  0  0
  -11.2635    0.8387   -1.1621 H   0  0  0  0  0  0  0  0  0  0  0  0
   -7.3598    2.9262   -0.9417 H   0  0  0  0  0  0  0  0  0  0  0  0
   -6.9120    4.6553    0.6407 H   0  0  0  0  0  0  0  0  0  0  0  0
   -8.6261    6.2047    1.4982 H   0  0  0  0  0  0  0  0  0  0  0  0
   -9.0221    4.4968    1.9007 H   0  0  0  0  0  0  0  0  0  0  0  0
   -9.9089    5.3505    0.5697 H   0  0  0  0  0  0  0  0  0  0  0  0
   -6.3580    6.9437   -2.1851 H   0  0  0  0  0  0  0  0  0  0  0  0
   -5.9667    6.6126    0.8106 H   0  0  0  0  0  0  0  0  0  0  0  0
   -6.1068    8.9111   -0.0609 H   0  0  0  0  0  0  0  0  0  0  0  0
   -4.7249    8.5915   -1.1763 H   0  0  0  0  0  0  0  0  0  0  0  0
   -4.4792    8.5500    0.6178 H   0  0  0  0  0  0  0  0  0  0  0  0
   -2.7663    7.0674   -1.2900 H   0  0  0  0  0  0  0  0  0  0  0  0
   -1.7955    7.5474    0.8855 H   0  0  0  0  0  0  0  0  0  0  0  0
   -2.7848    7.7164    3.0246 H   0  0  0  0  0  0  0  0  0  0  0  0
   -3.3765    6.2607    3.9030 H   0  0  0  0  0  0  0  0  0  0  0  0
   -0.4306    6.1974   -0.7377 H   0  0  0  0  0  0  0  0  0  0  0  0
   -0.9484    4.6997    0.0812 H   0  0  0  0  0  0  0  0  0  0  0  0
   -0.3348    4.1045    2.5038 H   0  0  0  0  0  0  0  0  0  0  0  0
    1.3281    4.4614    3.0558 H   0  0  0  0  0  0  0  0  0  0  0  0
  1  2  1  0
  2  3  2  0
  2  4  1  0
  4  5  1  0
  5  6  1  0
  6  7  1  0
  7  8  1  0
  8  9  1  0
  9 10  1  0
 10 11  2  0
 11 12  1  0
 12 13  2  0
 13 14  1  0
 13 15  1  0
 15 16  1  0
 16 17  1  0
 17 18  1  0
 18 19  1  0
 19 20  1  0
 20 21  2  0
 20 22  1  0
 22 23  1  0
 22 24  1  0
 24 25  1  0
 25 26  2  0
 25 27  1  0
 27 28  1  0
 27 29  1  0
 29 30  1  0
 30 31  2  0
 30 32  1  0
 32 33  1  0
 32 34  1  0
 34 35  1  0
 35 36  2  0
 35 37  1  0
 37 38  1  0
 37 39  1  0
 39 40  1  0
 40 41  2  0
 40 42  1  0
 42 43  1  0
 42 44  1  0
 44 45  1  0
 45 46  2  0
 18 47  1  0
 47 48  2  0
 47 49  1  0
 49 50  1  0
 50 51  1  0
 50 52  1  0
 52 53  2  0
 52 54  1  0
 54 55  1  0
 55 56  1  0
 55 57  1  0
 57 58  2  0
 57 59  1  0
 59 60  1  0
 60 61  1  0
 60 62  1  0
 62 63  2  0
 62 64  1  0
 64 65  1  0
 65 66  1  0
 65 67  1  0
 67 68  2  0
 67 69  1  0
 69 70  1  0
 70 71  1  0
 70 72  1  0
 72 73  2  0
 72 74  1  0
 74 75  1  0
 75 76  1  0
 75 77  1  0
 77 78  2  0
 77 79  1  0
 79 80  1  0
 80 81  1  0
 80 82  1  0
 82 83  2  0
 82 84  1  0
 84 85  1  0
 85 86  1  0
 85 87  1  0
 87 88  2  0
 87 89  1  0
 89 90  1  0
 90 91  1  0
 91 92  1  0
 91 93  2  0
 90 94  1  0
 94 95  1  0
 95 96  1  0
 45  5  1  0
 14  9  2  0
 96 11  1  0
  1 97  1  0
  1 98  1  0
  1 99  1  0
  4100  1  0
  5101  1  6
  6102  1  0
  6103  1  0
  8104  1  0
  8105  1  0
 10106  1  0
 12107  1  0
 14108  1  0
 15109  1  0
 15110  1  0
 17111  1  0
 17112  1  0
 18113  1  1
 19114  1  0
 22115  1  1
 23116  1  0
 23117  1  0
 23118  1  0
 24119  1  0
 27120  1  1
 28121  1  0
 28122  1  0
 28123  1  0
 29124  1  0
 32125  1  1
 33126  1  0
 33127  1  0
 33128  1  0
 34129  1  0
 37130  1  6
 38131  1  0
 38132  1  0
 38133  1  0
 39134  1  0
 42135  1  6
 43136  1  0
 43137  1  0
 43138  1  0
 44139  1  0
 49140  1  0
 50141  1  1
 51142  1  0
 51143  1  0
 51144  1  0
 54145  1  0
 55146  1  6
 56147  1  0
 56148  1  0
 56149  1  0
 59150  1  0
 60151  1  1
 61152  1  0
 61153  1  0
 61154  1  0
 64155  1  0
 65156  1  1
 66157  1  0
 66158  1  0
 66159  1  0
 69160  1  0
 70161  1  6
 71162  1  0
 71163  1  0
 71164  1  0
 74165  1  0
 75166  1  1
 76167  1  0
 76168  1  0
 76169  1  0
 79170  1  0
 80171  1  1
 81172  1  0
 81173  1  0
 81174  1  0
 84175  1  0
 85176  1  1
 86177  1  0
 86178  1  0
 86179  1  0
 89180  1  0
 90181  1  1
 92182  1  0
 92183  1  0
 94184  1  0
 94185  1  0
 96186  1  0
 96187  1  0
M  END
