
     RDKit          3D

177179  0  0  0  0  0  0  0  0999 V2000
   -8.4961   -6.8311    1.3320 C   0  0  0  0  0  0  0  0  0  0  0  0
   -7.0146   -6.6911    1.1936 C   0  0  0  0  0  0  0  0  0  0  0  0
   -6.3413   -7.6735    0.7660 O   0  0  0  0  0  0  0  0  0  0  0  0
   -6.3466   -5.4599    1.4988 N   0  0  0  0  0  0  0  0  0  0  0  0
   -6.7737   -4.1515    0.9710 C   0  0  1  0  0  0  0  0  0  0  0  0
   -5.6823   -3.0530    1.1273 C   0  0  0  0  0  0  0  0  0  0  0  0
   -3.9525   -3.6618    1.2982 S   0  0  0  0  0  0  0  0  0  0  0  0
   -3.4653   -3.6784   -0.4627 C   0  0  0  0  0  0  0  0  0  0  0  0
   -2.1141   -3.0284   -0.5974 C   0  0  0  0  0  0  0  0  0  0  0  0
   -0.9641   -3.7939   -0.8705 C   0  0  0  0  0  0  0  0  0  0  0  0
    0.3023   -3.1764   -0.9268 C   0  0  0  0  0  0  0  0  0  0  0  0
    0.4010   -1.7875   -0.7442 C   0  0  0  0  0  0  0  0  0  0  0  0
   -0.7413   -1.0108   -0.5150 C   0  0  0  0  0  0  0  0  0  0  0  0
   -1.9920   -1.6448   -0.4075 C   0  0  0  0  0  0  0  0  0  0  0  0
   -0.5951    0.4785   -0.3224 C   0  0  0  0  0  0  0  0  0  0  0  0
   -1.9696    1.3974   -1.1006 S   0  0  0  0  0  0  0  0  0  0  0  0
   -1.1661    3.0477   -1.1309 C   0  0  0  0  0  0  0  0  0  0  0  0
   -1.0500    3.7308    0.2565 C   0  0  2  0  0  0  0  0  0  0  0  0
   -2.3640    3.7435    0.9340 N   0  0  0  0  0  0  0  0  0  0  0  0
   -2.9379    4.9068    1.5434 C   0  0  0  0  0  0  0  0  0  0  0  0
   -2.5302    5.2663    2.6866 O   0  0  0  0  0  0  0  0  0  0  0  0
   -4.0937    5.6186    0.8941 C   0  0  1  0  0  0  0  0  0  0  0  0
   -3.9469    7.1403    1.0294 C   0  0  0  0  0  0  0  0  0  0  0  0
   -4.1756    5.2716   -0.5277 N   0  0  0  0  0  0  0  0  0  0  0  0
   -5.3086    4.6504   -1.1555 C   0  0  0  0  0  0  0  0  0  0  0  0
   -5.1147    3.9498   -2.1878 O   0  0  0  0  0  0  0  0  0  0  0  0
   -6.7182    4.8309   -0.6440 C   0  0  1  0  0  0  0  0  0  0  0  0
   -7.6264    5.3549   -1.7593 C   0  0  0  0  0  0  0  0  0  0  0  0
   -7.2377    3.5662   -0.1276 N   0  0  0  0  0  0  0  0  0  0  0  0
   -8.4057    3.5208    0.6886 C   0  0  0  0  0  0  0  0  0  0  0  0
   -8.4282    4.1735    1.7683 O   0  0  0  0  0  0  0  0  0  0  0  0
   -9.6257    2.7221    0.2885 C   0  0  1  0  0  0  0  0  0  0  0  0
  -10.8341    3.6584    0.1769 C   0  0  0  0  0  0  0  0  0  0  0  0
   -9.4289    2.0248   -0.9935 N   0  0  0  0  0  0  0  0  0  0  0  0
  -10.3520    1.0419   -1.4747 C   0  0  0  0  0  0  0  0  0  0  0  0
  -10.8056    1.1582   -2.6461 O   0  0  0  0  0  0  0  0  0  0  0  0
  -10.7840   -0.1329   -0.6245 C   0  0  1  0  0  0  0  0  0  0  0  0
  -12.0521    0.1982    0.1701 C   0  0  0  0  0  0  0  0  0  0  0  0
  -11.0511   -1.2877   -1.4932 N   0  0  0  0  0  0  0  0  0  0  0  0
  -10.2681   -2.4919   -1.5767 C   0  0  0  0  0  0  0  0  0  0  0  0
  -10.4115   -3.2145   -2.6042 O   0  0  0  0  0  0  0  0  0  0  0  0
   -9.4753   -3.0359   -0.3992 C   0  0  1  0  0  0  0  0  0  0  0  0
  -10.4581   -3.5100    0.6686 C   0  0  0  0  0  0  0  0  0  0  0  0
   -8.6183   -4.1570   -0.8232 N   0  0  0  0  0  0  0  0  0  0  0  0
   -7.2263   -4.2776   -0.4664 C   0  0  0  0  0  0  0  0  0  0  0  0
   -6.3978   -4.6233   -1.3527 O   0  0  0  0  0  0  0  0  0  0  0  0
   -0.4884    5.1377    0.1104 C   0  0  0  0  0  0  0  0  0  0  0  0
   -0.6464    5.7800   -0.9673 O   0  0  0  0  0  0  0  0  0  0  0  0
    0.0848    5.8220    1.2324 N   0  0  0  0  0  0  0  0  0  0  0  0
    1.2630    5.3244    1.9417 C   0  0  2  0  0  0  0  0  0  0  0  0
    0.9737    5.2675    3.4440 C   0  0  0  0  0  0  0  0  0  0  0  0
    2.4363    6.2347    1.6629 C   0  0  0  0  0  0  0  0  0  0  0  0
    2.3413    7.4682    1.9241 O   0  0  0  0  0  0  0  0  0  0  0  0
    3.6253    5.7168    1.0593 N   0  0  0  0  0  0  0  0  0  0  0  0
    4.5964    6.5774    0.3756 C   0  0  2  0  0  0  0  0  0  0  0  0
    4.0626    6.9690   -1.0026 C   0  0  0  0  0  0  0  0  0  0  0  0
    5.9316    5.8859    0.2312 C   0  0  0  0  0  0  0  0  0  0  0  0
    6.9551    6.4117    0.7458 O   0  0  0  0  0  0  0  0  0  0  0  0
    6.0425    4.6638   -0.5095 N   0  0  0  0  0  0  0  0  0  0  0  0
    7.3309    4.0978   -0.9244 C   0  0  2  0  0  0  0  0  0  0  0  0
    7.7870    4.7505   -2.2355 C   0  0  0  0  0  0  0  0  0  0  0  0
    7.2070    2.5985   -1.0861 C   0  0  0  0  0  0  0  0  0  0  0  0
    6.3987    2.1498   -1.9448 O   0  0  0  0  0  0  0  0  0  0  0  0
    7.9268    1.6620   -0.2649 N   0  0  0  0  0  0  0  0  0  0  0  0
    9.1757    1.9532    0.4563 C   0  0  2  0  0  0  0  0  0  0  0  0
   10.2834    2.4255   -0.5047 C   0  0  0  0  0  0  0  0  0  0  0  0
    9.5998    0.7588    1.2953 C   0  0  0  0  0  0  0  0  0  0  0  0
    9.7559    0.9436    2.5308 O   0  0  0  0  0  0  0  0  0  0  0  0
    9.7256   -0.5864    0.7839 N   0  0  0  0  0  0  0  0  0  0  0  0
   10.0961   -0.9771   -0.5844 C   0  0  2  0  0  0  0  0  0  0  0  0
    8.9215   -1.6359   -1.3171 C   0  0  0  0  0  0  0  0  0  0  0  0
   11.3314   -1.8582   -0.5435 C   0  0  0  0  0  0  0  0  0  0  0  0
   12.4665   -1.3015   -0.5545 O   0  0  0  0  0  0  0  0  0  0  0  0
   11.2678   -3.2985   -0.5814 N   0  0  0  0  0  0  0  0  0  0  0  0
   10.4214   -4.0921    0.3149 C   0  0  2  0  0  0  0  0  0  0  0  0
   11.2968   -4.7817    1.3676 C   0  0  0  0  0  0  0  0  0  0  0  0
    9.6599   -5.1237   -0.4857 C   0  0  0  0  0  0  0  0  0  0  0  0
   10.2723   -5.7815   -1.3702 O   0  0  0  0  0  0  0  0  0  0  0  0
    8.2509   -5.3546   -0.3126 N   0  0  0  0  0  0  0  0  0  0  0  0
    7.5824   -5.3390    0.9947 C   0  0  2  0  0  0  0  0  0  0  0  0
    7.7936   -6.6929    1.6843 C   0  0  0  0  0  0  0  0  0  0  0  0
    6.1152   -5.0008    0.7937 C   0  0  0  0  0  0  0  0  0  0  0  0
    5.8125   -3.8792    0.2993 O   0  0  0  0  0  0  0  0  0  0  0  0
    5.0740   -5.9180    1.1620 N   0  0  0  0  0  0  0  0  0  0  0  0
    4.0223   -6.4326    0.2632 C   0  0  2  0  0  0  0  0  0  0  0  0
    4.3787   -6.3217   -1.2041 C   0  0  0  0  0  0  0  0  0  0  0  0
    4.5715   -7.4972   -1.9897 N   0  0  0  0  0  0  0  0  0  0  0  0
    4.5065   -5.1960   -1.7504 O   0  0  0  0  0  0  0  0  0  0  0  0
    2.6397   -5.8478    0.6139 C   0  0  0  0  0  0  0  0  0  0  0  0
    2.5439   -4.0282    0.4018 S   0  0  0  0  0  0  0  0  0  0  0  0
    1.5577   -3.9741   -1.1485 C   0  0  0  0  0  0  0  0  0  0  0  0
   -8.7333   -7.7216    1.9474 H   0  0  0  0  0  0  0  0  0  0  0  0
   -8.9226   -5.9419    1.8346 H   0  0  0  0  0  0  0  0  0  0  0  0
   -8.9547   -6.9501    0.3293 H   0  0  0  0  0  0  0  0  0  0  0  0
   -5.6191   -5.5145    2.2532 H   0  0  0  0  0  0  0  0  0  0  0  0
   -7.6418   -3.8273    1.5791 H   0  0  0  0  0  0  0  0  0  0  0  0
   -5.8900   -2.5082    2.0710 H   0  0  0  0  0  0  0  0  0  0  0  0
   -5.7513   -2.2854    0.3222 H   0  0  0  0  0  0  0  0  0  0  0  0
   -3.4322   -4.7350   -0.7973 H   0  0  0  0  0  0  0  0  0  0  0  0
   -4.1996   -3.1572   -1.1134 H   0  0  0  0  0  0  0  0  0  0  0  0
   -1.0431   -4.8683   -1.0001 H   0  0  0  0  0  0  0  0  0  0  0  0
    1.3758   -1.3180   -0.7697 H   0  0  0  0  0  0  0  0  0  0  0  0
   -2.8739   -1.0675   -0.1709 H   0  0  0  0  0  0  0  0  0  0  0  0
    0.3642    0.8185   -0.7592 H   0  0  0  0  0  0  0  0  0  0  0  0
   -0.5715    0.7086    0.7565 H   0  0  0  0  0  0  0  0  0  0  0  0
   -1.7863    3.6762   -1.8048 H   0  0  0  0  0  0  0  0  0  0  0  0
   -0.1574    2.9652   -1.5903 H   0  0  0  0  0  0  0  0  0  0  0  0
   -0.3448    3.1305    0.8738 H   0  0  0  0  0  0  0  0  0  0  0  0
   -2.9010    2.8557    1.0347 H   0  0  0  0  0  0  0  0  0  0  0  0
   -5.0059    5.2994    1.4384 H   0  0  0  0  0  0  0  0  0  0  0  0
   -3.9507    7.4432    2.0967 H   0  0  0  0  0  0  0  0  0  0  0  0
   -2.9971    7.4811    0.5574 H   0  0  0  0  0  0  0  0  0  0  0  0
   -4.7917    7.6438    0.5167 H   0  0  0  0  0  0  0  0  0  0  0  0
   -3.3215    5.4088   -1.1165 H   0  0  0  0  0  0  0  0  0  0  0  0
   -6.7337    5.5938    0.1602 H   0  0  0  0  0  0  0  0  0  0  0  0
   -8.6332    5.5965   -1.3534 H   0  0  0  0  0  0  0  0  0  0  0  0
   -7.2009    6.2864   -2.2012 H   0  0  0  0  0  0  0  0  0  0  0  0
   -7.7433    4.5977   -2.5675 H   0  0  0  0  0  0  0  0  0  0  0  0
   -6.8201    2.6532   -0.4476 H   0  0  0  0  0  0  0  0  0  0  0  0
   -9.8030    1.9675    1.0858 H   0  0  0  0  0  0  0  0  0  0  0  0
  -11.7564    3.0933   -0.0489 H   0  0  0  0  0  0  0  0  0  0  0  0
  -10.9946    4.2165    1.1298 H   0  0  0  0  0  0  0  0  0  0  0  0
  -10.6657    4.3963   -0.6446 H   0  0  0  0  0  0  0  0  0  0  0  0
   -8.8959    2.5352   -1.7396 H   0  0  0  0  0  0  0  0  0  0  0  0
   -9.9711   -0.3662    0.0964 H   0  0  0  0  0  0  0  0  0  0  0  0
  -12.4665   -0.7231    0.6317 H   0  0  0  0  0  0  0  0  0  0  0  0
  -11.8487    0.9162    0.9835 H   0  0  0  0  0  0  0  0  0  0  0  0
  -12.8322    0.6276   -0.5027 H   0  0  0  0  0  0  0  0  0  0  0  0
  -11.8252   -1.1939   -2.1902 H   0  0  0  0  0  0  0  0  0  0  0  0
   -8.8345   -2.2341    0.0224 H   0  0  0  0  0  0  0  0  0  0  0  0
  -11.1267   -4.3000    0.2613 H   0  0  0  0  0  0  0  0  0  0  0  0
   -9.9236   -3.9198    1.5492 H   0  0  0  0  0  0  0  0  0  0  0  0
  -11.0740   -2.6561    1.0297 H   0  0  0  0  0  0  0  0  0  0  0  0
   -9.0130   -4.8976   -1.4450 H   0  0  0  0  0  0  0  0  0  0  0  0
   -0.2415    6.7920    1.4177 H   0  0  0  0  0  0  0  0  0  0  0  0
    1.5160    4.3012    1.6005 H   0  0  0  0  0  0  0  0  0  0  0  0
    0.1521    4.5438    3.6342 H   0  0  0  0  0  0  0  0  0  0  0  0
    0.6630    6.2633    3.8280 H   0  0  0  0  0  0  0  0  0  0  0  0
    1.8754    4.9314    3.9996 H   0  0  0  0  0  0  0  0  0  0  0  0
    3.7359    4.6723    1.0126 H   0  0  0  0  0  0  0  0  0  0  0  0
    4.7498    7.5040    0.9731 H   0  0  0  0  0  0  0  0  0  0  0  0
    3.8680    6.0619   -1.6159 H   0  0  0  0  0  0  0  0  0  0  0  0
    3.1103    7.5311   -0.9064 H   0  0  0  0  0  0  0  0  0  0  0  0
    4.7985    7.6120   -1.5366 H   0  0  0  0  0  0  0  0  0  0  0  0
    5.1621    4.1247   -0.7151 H   0  0  0  0  0  0  0  0  0  0  0  0
    8.0872    4.3303   -0.1463 H   0  0  0  0  0  0  0  0  0  0  0  0
    7.9133    5.8454   -2.0869 H   0  0  0  0  0  0  0  0  0  0  0  0
    8.7572    4.3161   -2.5571 H   0  0  0  0  0  0  0  0  0  0  0  0
    7.0267    4.5897   -3.0363 H   0  0  0  0  0  0  0  0  0  0  0  0
    7.5084    0.7101   -0.1790 H   0  0  0  0  0  0  0  0  0  0  0  0
    8.9783    2.7773    1.1651 H   0  0  0  0  0  0  0  0  0  0  0  0
   10.1002    2.0713   -1.5435 H   0  0  0  0  0  0  0  0  0  0  0  0
   10.3123    3.5320   -0.5341 H   0  0  0  0  0  0  0  0  0  0  0  0
   11.2847    2.0720   -0.1733 H   0  0  0  0  0  0  0  0  0  0  0  0
    9.6205   -1.3428    1.4960 H   0  0  0  0  0  0  0  0  0  0  0  0
   10.3746   -0.0909   -1.1744 H   0  0  0  0  0  0  0  0  0  0  0  0
    8.1755   -0.8726   -1.6166 H   0  0  0  0  0  0  0  0  0  0  0  0
    9.2683   -2.1330   -2.2478 H   0  0  0  0  0  0  0  0  0  0  0  0
    8.4034   -2.3783   -0.6765 H   0  0  0  0  0  0  0  0  0  0  0  0
   12.0499   -3.7906   -1.0735 H   0  0  0  0  0  0  0  0  0  0  0  0
    9.7131   -3.4359    0.8434 H   0  0  0  0  0  0  0  0  0  0  0  0
   10.6589   -5.3042    2.1120 H   0  0  0  0  0  0  0  0  0  0  0  0
   11.9835   -5.5157    0.8983 H   0  0  0  0  0  0  0  0  0  0  0  0
   11.9088   -4.0244    1.9035 H   0  0  0  0  0  0  0  0  0  0  0  0
    7.7777   -5.8904   -1.0735 H   0  0  0  0  0  0  0  0  0  0  0  0
    8.0112   -4.5537    1.6540 H   0  0  0  0  0  0  0  0  0  0  0  0
    8.8790   -6.9243    1.7423 H   0  0  0  0  0  0  0  0  0  0  0  0
    7.3978   -6.6739    2.7193 H   0  0  0  0  0  0  0  0  0  0  0  0
    7.2928   -7.5067    1.1079 H   0  0  0  0  0  0  0  0  0  0  0  0
    5.1368   -6.3522    2.1091 H   0  0  0  0  0  0  0  0  0  0  0  0
    3.9398   -7.5230    0.4858 H   0  0  0  0  0  0  0  0  0  0  0  0
    4.4735   -8.4466   -1.5694 H   0  0  0  0  0  0  0  0  0  0  0  0
    4.7795   -7.4291   -3.0129 H   0  0  0  0  0  0  0  0  0  0  0  0
    2.4331   -6.0637    1.6789 H   0  0  0  0  0  0  0  0  0  0  0  0
    1.8557   -6.3765    0.0354 H   0  0  0  0  0  0  0  0  0  0  0  0
    1.3303   -4.9779   -1.5668 H   0  0  0  0  0  0  0  0  0  0  0  0
    2.1765   -3.4600   -1.9165 H   0  0  0  0  0  0  0  0  0  0  0  0
  1  2  1  0
  2  3  2  0
  2  4  1  0
  4  5  1  0
  5  6  1  0
  6  7  1  0
  7  8  1  0
  8  9  1  0
  9 10  1  0
 10 11  2  0
 11 12  1  0
 12 13  2  0
 13 14  1  0
 13 15  1  0
 15 16  1  0
 16 17  1  0
 17 18  1  0
 18 19  1  0
 19 20  1  0
 20 21  2  0
 20 22  1  0
 22 23  1  0
 22 24  1  0
 24 25  1  0
 25 26  2  0
 25 27  1  0
 27 28  1  0
 27 29  1  0
 29 30  1  0
 30 31  2  0
 30 32  1  0
 32 33  1  0
 32 34  1  0
 34 35  1  0
 35 36  2  0
 35 37  1  0
 37 38  1  0
 37 39  1  0
 39 40  1  0
 40 41  2  0
 40 42  1  0
 42 43  1  0
 42 44  1  0
 44 45  1  0
 45 46  2  0
 18 47  1  0
 47 48  2  0
 47 49  1  0
 49 50  1  0
 50 51  1  0
 50 52  1  0
 52 53  2  0
 52 54  1  0
 54 55  1  0
 55 56  1  0
 55 57  1  0
 57 58  2  0
 57 59  1  0
 59 60  1  0
 60 61  1  0
 60 62  1  0
 62 63  2  0
 62 64  1  0
 64 65  1  0
 65 66  1  0
 65 67  1  0
 67 68  2  0
 67 69  1  0
 69 70  1  0
 70 71  1  0
 70 72  1  0
 72 73  2  0
 72 74  1  0
 74 75  1  0
 75 76  1  0
 75 77  1  0
 77 78  2  0
 77 79  1  0
 79 80  1  0
 80 81  1  0
 80 82  1  0
 82 83  2  0
 82 84  1  0
 84 85  1  0
 85 86  1  0
 86 87  1  0
 86 88  2  0
 85 89  1  0
 89 90  1  0
 90 91  1  0
 45  5  1  0
 14  9  2  0
 91 11  1  0
  1 92  1  0
  1 93  1  0
  1 94  1  0
  4 95  1  0
  5 96  1  1
  6 97  1  0
  6 98  1  0
  8 99  1  0
  8100  1  0
 10101  1  0
 12102  1  0
 14103  1  0
 15104  1  0
 15105  1  0
 17106  1  0
 17107  1  0
 18108  1  1
 19109  1  0
 22110  1  1
 23111  1  0
 23112  1  0
 23113  1  0
 24114  1  0
 27115  1  1
 28116  1  0
 28117  1  0
 28118  1  0
 29119  1  0
 32120  1  1
 33121  1  0
 33122  1  0
 33123  1  0
 34124  1  0
 37125  1  1
 38126  1  0
 38127  1  0
 38128  1  0
 39129  1  0
 42130  1  1
 43131  1  0
 43132  1  0
 43133  1  0
 44134  1  0
 49135  1  0
 50136  1  6
 51137  1  0
 51138  1  0
 51139  1  0
 54140  1  0
 55141  1  1
 56142  1  0
 56143  1  0
 56144  1  0
 59145  1  0
 60146  1  1
 61147  1  0
 61148  1  0
 61149  1  0
 64150  1  0
 65151  1  1
 66152  1  0
 66153  1  0
 66154  1  0
 69155  1  0
 70156  1  6
 71157  1  0
 71158  1  0
 71159  1  0
 74160  1  0
 75161  1  1
 76162  1  0
 76163  1  0
 76164  1  0
 79165  1  0
 80166  1  1
 81167  1  0
 81168  1  0
 81169  1  0
 84170  1  0
 85171  1  1
 87172  1  0
 87173  1  0
 89174  1  0
 89175  1  0
 91176  1  0
 91177  1  0
M  END
