
     RDKit          3D

187189  0  0  0  0  0  0  0  0999 V2000
    7.9079    8.5363   -0.4395 C   0  0  0  0  0  0  0  0  0  0  0  0
    7.1773    7.3797    0.1662 C   0  0  0  0  0  0  0  0  0  0  0  0
    6.3192    7.5828    1.0671 O   0  0  0  0  0  0  0  0  0  0  0  0
    7.4616    6.0454   -0.2698 N   0  0  0  0  0  0  0  0  0  0  0  0
    7.0307    4.8586    0.4820 C   0  0  1  0  0  0  0  0  0  0  0  0
    6.6287    3.7308   -0.4935 C   0  0  0  0  0  0  0  0  0  0  0  0
    5.2015    4.1989   -1.5345 S   0  0  0  0  0  0  0  0  0  0  0  0
    3.9385    4.1388   -0.2049 C   0  0  0  0  0  0  0  0  0  0  0  0
    2.7276    3.3785   -0.6723 C   0  0  0  0  0  0  0  0  0  0  0  0
    1.7195    4.0361   -1.3882 C   0  0  0  0  0  0  0  0  0  0  0  0
    0.5685    3.3471   -1.7978 C   0  0  0  0  0  0  0  0  0  0  0  0
    0.4566    1.9726   -1.5193 C   0  0  0  0  0  0  0  0  0  0  0  0
    1.4670    1.2955   -0.8113 C   0  0  0  0  0  0  0  0  0  0  0  0
    2.6164    2.0043   -0.4209 C   0  0  0  0  0  0  0  0  0  0  0  0
    1.3814   -0.2018   -0.6442 C   0  0  0  0  0  0  0  0  0  0  0  0
    2.0417   -0.7658    0.9712 S   0  0  0  0  0  0  0  0  0  0  0  0
    0.9437   -2.2236    1.2503 C   0  0  0  0  0  0  0  0  0  0  0  0
    1.4792   -3.5651    0.6912 C   0  0  2  0  0  0  0  0  0  0  0  0
    2.9383   -3.6692    0.8349 N   0  0  0  0  0  0  0  0  0  0  0  0
    3.6503   -4.7850    0.2925 C   0  0  0  0  0  0  0  0  0  0  0  0
    3.6814   -5.8719    0.9375 O   0  0  0  0  0  0  0  0  0  0  0  0
    4.3176   -4.6835   -1.0615 C   0  0  1  0  0  0  0  0  0  0  0  0
    4.8976   -3.2851   -1.3150 C   0  0  0  0  0  0  0  0  0  0  0  0
    5.3290   -5.7305   -1.2641 N   0  0  0  0  0  0  0  0  0  0  0  0
    6.3715   -6.0747   -0.3376 C   0  0  0  0  0  0  0  0  0  0  0  0
    6.4859   -7.2792    0.0184 O   0  0  0  0  0  0  0  0  0  0  0  0
    7.3542   -5.0567    0.1920 C   0  0  1  0  0  0  0  0  0  0  0  0
    7.0153   -4.7555    1.6556 C   0  0  0  0  0  0  0  0  0  0  0  0
    8.7276   -5.5656    0.0771 N   0  0  0  0  0  0  0  0  0  0  0  0
    9.9264   -4.7724    0.1905 C   0  0  0  0  0  0  0  0  0  0  0  0
   11.0424   -5.3537    0.0699 O   0  0  0  0  0  0  0  0  0  0  0  0
    9.9221   -3.2769    0.4465 C   0  0  1  0  0  0  0  0  0  0  0  0
   10.6731   -3.0002    1.7505 C   0  0  0  0  0  0  0  0  0  0  0  0
   10.5450   -2.5743   -0.6843 N   0  0  0  0  0  0  0  0  0  0  0  0
   10.1319   -1.2471   -1.0462 C   0  0  0  0  0  0  0  0  0  0  0  0
    9.4054   -1.1008   -2.0627 O   0  0  0  0  0  0  0  0  0  0  0  0
   10.4736   -0.0576   -0.1735 C   0  0  1  0  0  0  0  0  0  0  0  0
   11.9655   -0.0532    0.1863 C   0  0  0  0  0  0  0  0  0  0  0  0
   10.1399    1.2158   -0.8328 N   0  0  0  0  0  0  0  0  0  0  0  0
   10.1278    2.4986   -0.1701 C   0  0  0  0  0  0  0  0  0  0  0  0
   10.2206    3.5404   -0.8726 O   0  0  0  0  0  0  0  0  0  0  0  0
    9.9271    2.6488    1.3239 C   0  0  1  0  0  0  0  0  0  0  0  0
   10.9799    3.5845    1.9309 C   0  0  0  0  0  0  0  0  0  0  0  0
    8.5564    3.0960    1.5885 N   0  0  0  0  0  0  0  0  0  0  0  0
    8.1252    4.4570    1.4444 C   0  0  0  0  0  0  0  0  0  0  0  0
    8.6068    5.3364    2.2089 O   0  0  0  0  0  0  0  0  0  0  0  0
    1.0528   -3.7800   -0.7480 C   0  0  0  0  0  0  0  0  0  0  0  0
    1.5075   -3.0201   -1.6386 O   0  0  0  0  0  0  0  0  0  0  0  0
    0.2054   -4.8733   -1.1580 N   0  0  0  0  0  0  0  0  0  0  0  0
   -0.6536   -5.6470   -0.2582 C   0  0  2  0  0  0  0  0  0  0  0  0
    0.0707   -6.9203    0.1890 C   0  0  0  0  0  0  0  0  0  0  0  0
   -1.9450   -5.9923   -0.9548 C   0  0  0  0  0  0  0  0  0  0  0  0
   -1.9408   -6.7645   -1.9509 O   0  0  0  0  0  0  0  0  0  0  0  0
   -3.1688   -5.3517   -0.5742 N   0  0  0  0  0  0  0  0  0  0  0  0
   -3.9944   -5.7741    0.5614 C   0  0  2  0  0  0  0  0  0  0  0  0
   -3.2762   -5.5471    1.8981 C   0  0  0  0  0  0  0  0  0  0  0  0
   -4.4212   -7.2173    0.4230 C   0  0  0  0  0  0  0  0  0  0  0  0
   -3.5317   -8.1129    0.4026 O   0  0  0  0  0  0  0  0  0  0  0  0
   -5.8023   -7.6245    0.3773 N   0  0  0  0  0  0  0  0  0  0  0  0
   -6.9094   -6.8767   -0.2388 C   0  0  2  0  0  0  0  0  0  0  0  0
   -6.5610   -6.4536   -1.6704 C   0  0  0  0  0  0  0  0  0  0  0  0
   -7.3600   -5.7299    0.6337 C   0  0  0  0  0  0  0  0  0  0  0  0
   -7.5988   -5.9306    1.8550 O   0  0  0  0  0  0  0  0  0  0  0  0
   -7.5780   -4.4248    0.0777 N   0  0  0  0  0  0  0  0  0  0  0  0
   -8.9133   -3.8576   -0.1574 C   0  0  2  0  0  0  0  0  0  0  0  0
   -9.9832   -4.9534   -0.3111 C   0  0  0  0  0  0  0  0  0  0  0  0
   -8.9016   -3.0055   -1.4048 C   0  0  0  0  0  0  0  0  0  0  0  0
   -8.0351   -3.2288   -2.2944 O   0  0  0  0  0  0  0  0  0  0  0  0
   -9.9069   -2.0129   -1.6630 N   0  0  0  0  0  0  0  0  0  0  0  0
  -10.4264   -1.0883   -0.6431 C   0  0  2  0  0  0  0  0  0  0  0  0
  -11.6384   -1.6950    0.0740 C   0  0  0  0  0  0  0  0  0  0  0  0
  -10.8291    0.2181   -1.2969 C   0  0  0  0  0  0  0  0  0  0  0  0
  -11.6515    0.1997   -2.2515 O   0  0  0  0  0  0  0  0  0  0  0  0
  -10.2766    1.4723   -0.8762 N   0  0  0  0  0  0  0  0  0  0  0  0
  -10.2874    1.8906    0.5292 C   0  0  2  0  0  0  0  0  0  0  0  0
  -11.6533    2.4807    0.8860 C   0  0  0  0  0  0  0  0  0  0  0  0
   -9.1650    2.8642    0.7846 C   0  0  0  0  0  0  0  0  0  0  0  0
   -8.0444    2.4194    1.1548 O   0  0  0  0  0  0  0  0  0  0  0  0
   -9.3354    4.2724    0.5611 N   0  0  0  0  0  0  0  0  0  0  0  0
   -9.0651    5.2588    1.6208 C   0  0  2  0  0  0  0  0  0  0  0  0
   -9.5518    6.6531    1.2065 C   0  0  0  0  0  0  0  0  0  0  0  0
   -7.6164    5.2271    2.0739 C   0  0  0  0  0  0  0  0  0  0  0  0
   -7.3095    4.3904    2.9700 O   0  0  0  0  0  0  0  0  0  0  0  0
   -6.5958    6.1544    1.6467 N   0  0  0  0  0  0  0  0  0  0  0  0
   -6.3849    6.6594    0.2834 C   0  0  2  0  0  0  0  0  0  0  0  0
   -6.5320    5.5545   -0.7718 C   0  0  0  0  0  0  0  0  0  0  0  0
   -5.0025    7.2465    0.1706 C   0  0  0  0  0  0  0  0  0  0  0  0
   -4.8610    8.4758   -0.0791 O   0  0  0  0  0  0  0  0  0  0  0  0
   -3.8493    6.4065    0.3236 N   0  0  0  0  0  0  0  0  0  0  0  0
   -2.5956    6.6878   -0.3750 C   0  0  1  0  0  0  0  0  0  0  0  0
   -1.6255    7.3423    0.5705 C   0  0  0  0  0  0  0  0  0  0  0  0
   -1.1268    8.6542    0.3062 N   0  0  0  0  0  0  0  0  0  0  0  0
   -1.2626    6.7397    1.6201 O   0  0  0  0  0  0  0  0  0  0  0  0
   -2.0273    5.3863   -0.9643 C   0  0  0  0  0  0  0  0  0  0  0  0
   -0.7701    5.7527   -2.2336 S   0  0  0  0  0  0  0  0  0  0  0  0
   -0.4513    4.0109   -2.7013 C   0  0  0  0  0  0  0  0  0  0  0  0
    7.6758    8.5948   -1.5217 H   0  0  0  0  0  0  0  0  0  0  0  0
    7.5977    9.4856    0.0476 H   0  0  0  0  0  0  0  0  0  0  0  0
    8.9988    8.3968   -0.2986 H   0  0  0  0  0  0  0  0  0  0  0  0
    8.1842    5.9164   -1.0181 H   0  0  0  0  0  0  0  0  0  0  0  0
    6.1414    5.1117    1.0967 H   0  0  0  0  0  0  0  0  0  0  0  0
    6.3710    2.7954    0.0482 H   0  0  0  0  0  0  0  0  0  0  0  0
    7.4841    3.4994   -1.1607 H   0  0  0  0  0  0  0  0  0  0  0  0
    4.3155    3.6831    0.7318 H   0  0  0  0  0  0  0  0  0  0  0  0
    3.6505    5.1836    0.0466 H   0  0  0  0  0  0  0  0  0  0  0  0
    1.8418    5.0825   -1.6408 H   0  0  0  0  0  0  0  0  0  0  0  0
   -0.3963    1.4125   -1.8977 H   0  0  0  0  0  0  0  0  0  0  0  0
    3.4426    1.4890    0.0608 H   0  0  0  0  0  0  0  0  0  0  0  0
    1.9960   -0.6520   -1.4509 H   0  0  0  0  0  0  0  0  0  0  0  0
    0.3308   -0.5377   -0.7635 H   0  0  0  0  0  0  0  0  0  0  0  0
    0.8790   -2.3321    2.3559 H   0  0  0  0  0  0  0  0  0  0  0  0
   -0.0950   -2.0285    0.9074 H   0  0  0  0  0  0  0  0  0  0  0  0
    1.0496   -4.3610    1.3249 H   0  0  0  0  0  0  0  0  0  0  0  0
    3.3548   -3.2497    1.6940 H   0  0  0  0  0  0  0  0  0  0  0  0
    3.5204   -4.8401   -1.8226 H   0  0  0  0  0  0  0  0  0  0  0  0
    5.5826   -3.3000   -2.1885 H   0  0  0  0  0  0  0  0  0  0  0  0
    4.0795   -2.5674   -1.5333 H   0  0  0  0  0  0  0  0  0  0  0  0
    5.4374   -2.9050   -0.4278 H   0  0  0  0  0  0  0  0  0  0  0  0
    5.1001   -6.4544   -1.9828 H   0  0  0  0  0  0  0  0  0  0  0  0
    7.2787   -4.1379   -0.4165 H   0  0  0  0  0  0  0  0  0  0  0  0
    7.0634   -5.6835    2.2652 H   0  0  0  0  0  0  0  0  0  0  0  0
    5.9918   -4.3284    1.7430 H   0  0  0  0  0  0  0  0  0  0  0  0
    7.7220   -4.0270    2.0991 H   0  0  0  0  0  0  0  0  0  0  0  0
    8.8728   -6.5596   -0.2106 H   0  0  0  0  0  0  0  0  0  0  0  0
    8.8896   -2.9001    0.5668 H   0  0  0  0  0  0  0  0  0  0  0  0
   10.2813   -3.6394    2.5698 H   0  0  0  0  0  0  0  0  0  0  0  0
   11.7634   -3.1950    1.6357 H   0  0  0  0  0  0  0  0  0  0  0  0
   10.5319   -1.9448    2.0663 H   0  0  0  0  0  0  0  0  0  0  0  0
   10.9566   -3.1423   -1.4569 H   0  0  0  0  0  0  0  0  0  0  0  0
    9.8558   -0.1672    0.7418 H   0  0  0  0  0  0  0  0  0  0  0  0
   12.1753    0.7412    0.9286 H   0  0  0  0  0  0  0  0  0  0  0  0
   12.5778    0.1394   -0.7226 H   0  0  0  0  0  0  0  0  0  0  0  0
   12.2809   -1.0198    0.6274 H   0  0  0  0  0  0  0  0  0  0  0  0
   10.1464    1.2472   -1.8780 H   0  0  0  0  0  0  0  0  0  0  0  0
   10.0628    1.6788    1.8336 H   0  0  0  0  0  0  0  0  0  0  0  0
   11.9930    3.1492    1.8067 H   0  0  0  0  0  0  0  0  0  0  0  0
   10.9622    4.5773    1.4333 H   0  0  0  0  0  0  0  0  0  0  0  0
   10.7838    3.7169    3.0169 H   0  0  0  0  0  0  0  0  0  0  0  0
    7.8288    2.3512    1.6731 H   0  0  0  0  0  0  0  0  0  0  0  0
    0.1262   -5.0462   -2.1842 H   0  0  0  0  0  0  0  0  0  0  0  0
   -0.9038   -5.0351    0.6315 H   0  0  0  0  0  0  0  0  0  0  0  0
   -0.5687   -7.5082    0.8784 H   0  0  0  0  0  0  0  0  0  0  0  0
    0.3252   -7.5487   -0.6905 H   0  0  0  0  0  0  0  0  0  0  0  0
    1.0138   -6.6694    0.7140 H   0  0  0  0  0  0  0  0  0  0  0  0
   -3.5657   -4.6516   -1.2388 H   0  0  0  0  0  0  0  0  0  0  0  0
   -4.8840   -5.1193    0.5845 H   0  0  0  0  0  0  0  0  0  0  0  0
   -2.9132   -4.4980    1.9630 H   0  0  0  0  0  0  0  0  0  0  0  0
   -3.9759   -5.7272    2.7375 H   0  0  0  0  0  0  0  0  0  0  0  0
   -2.4135   -6.2362    2.0135 H   0  0  0  0  0  0  0  0  0  0  0  0
   -6.0001   -8.6194    0.6245 H   0  0  0  0  0  0  0  0  0  0  0  0
   -7.7794   -7.5647   -0.3128 H   0  0  0  0  0  0  0  0  0  0  0  0
   -6.2140   -7.3312   -2.2557 H   0  0  0  0  0  0  0  0  0  0  0  0
   -7.4635   -6.0406   -2.1749 H   0  0  0  0  0  0  0  0  0  0  0  0
   -5.7657   -5.6790   -1.6835 H   0  0  0  0  0  0  0  0  0  0  0  0
   -6.7702   -3.7613    0.0942 H   0  0  0  0  0  0  0  0  0  0  0  0
   -9.1644   -3.2236    0.7198 H   0  0  0  0  0  0  0  0  0  0  0  0
  -10.9610   -4.5156   -0.5993 H   0  0  0  0  0  0  0  0  0  0  0  0
  -10.1177   -5.4961    0.6470 H   0  0  0  0  0  0  0  0  0  0  0  0
   -9.6840   -5.6787   -1.0995 H   0  0  0  0  0  0  0  0  0  0  0  0
  -10.0848   -1.7940   -2.6707 H   0  0  0  0  0  0  0  0  0  0  0  0
   -9.6291   -0.8948    0.1038 H   0  0  0  0  0  0  0  0  0  0  0  0
  -11.3391   -2.5462    0.7154 H   0  0  0  0  0  0  0  0  0  0  0  0
  -12.3904   -2.0544   -0.6646 H   0  0  0  0  0  0  0  0  0  0  0  0
  -12.1184   -0.9392    0.7342 H   0  0  0  0  0  0  0  0  0  0  0  0
  -10.2801    2.2396   -1.5899 H   0  0  0  0  0  0  0  0  0  0  0  0
  -10.1254    1.0106    1.1886 H   0  0  0  0  0  0  0  0  0  0  0  0
  -12.4362    1.6932    0.8114 H   0  0  0  0  0  0  0  0  0  0  0  0
  -11.9269    3.3020    0.1882 H   0  0  0  0  0  0  0  0  0  0  0  0
  -11.6466    2.8738    1.9259 H   0  0  0  0  0  0  0  0  0  0  0  0
   -9.9652    4.5515   -0.2192 H   0  0  0  0  0  0  0  0  0  0  0  0
   -9.6787    4.9795    2.5035 H   0  0  0  0  0  0  0  0  0  0  0  0
   -9.1746    7.4286    1.9074 H   0  0  0  0  0  0  0  0  0  0  0  0
   -9.2475    6.8962    0.1689 H   0  0  0  0  0  0  0  0  0  0  0  0
  -10.6601    6.6773    1.2336 H   0  0  0  0  0  0  0  0  0  0  0  0
   -5.8398    6.3262    2.3491 H   0  0  0  0  0  0  0  0  0  0  0  0
   -7.1142    7.4656    0.0670 H   0  0  0  0  0  0  0  0  0  0  0  0
   -5.9880    4.6351   -0.4592 H   0  0  0  0  0  0  0  0  0  0  0  0
   -6.1288    5.8872   -1.7511 H   0  0  0  0  0  0  0  0  0  0  0  0
   -7.5976    5.3079   -0.9342 H   0  0  0  0  0  0  0  0  0  0  0  0
   -3.9599    5.4921    0.8256 H   0  0  0  0  0  0  0  0  0  0  0  0
   -2.8047    7.3768   -1.2267 H   0  0  0  0  0  0  0  0  0  0  0  0
   -0.4321    9.0975    0.9542 H   0  0  0  0  0  0  0  0  0  0  0  0
   -1.4276    9.1843   -0.5404 H   0  0  0  0  0  0  0  0  0  0  0  0
   -2.8548    4.8241   -1.4517 H   0  0  0  0  0  0  0  0  0  0  0  0
   -1.5893    4.7484   -0.1641 H   0  0  0  0  0  0  0  0  0  0  0  0
   -1.4084    3.4403   -2.7035 H   0  0  0  0  0  0  0  0  0  0  0  0
   -0.0571    3.9925   -3.7409 H   0  0  0  0  0  0  0  0  0  0  0  0
  1  2  1  0
  2  3  2  0
  2  4  1  0
  4  5  1  0
  5  6  1  0
  6  7  1  0
  7  8  1  0
  8  9  1  0
  9 10  1  0
 10 11  2  0
 11 12  1  0
 12 13  2  0
 13 14  1  0
 13 15  1  0
 15 16  1  0
 16 17  1  0
 17 18  1  0
 18 19  1  0
 19 20  1  0
 20 21  2  0
 20 22  1  0
 22 23  1  0
 22 24  1  0
 24 25  1  0
 25 26  2  0
 25 27  1  0
 27 28  1  0
 27 29  1  0
 29 30  1  0
 30 31  2  0
 30 32  1  0
 32 33  1  0
 32 34  1  0
 34 35  1  0
 35 36  2  0
 35 37  1  0
 37 38  1  0
 37 39  1  0
 39 40  1  0
 40 41  2  0
 40 42  1  0
 42 43  1  0
 42 44  1  0
 44 45  1  0
 45 46  2  0
 18 47  1  0
 47 48  2  0
 47 49  1  0
 49 50  1  0
 50 51  1  0
 50 52  1  0
 52 53  2  0
 52 54  1  0
 54 55  1  0
 55 56  1  0
 55 57  1  0
 57 58  2  0
 57 59  1  0
 59 60  1  0
 60 61  1  0
 60 62  1  0
 62 63  2  0
 62 64  1  0
 64 65  1  0
 65 66  1  0
 65 67  1  0
 67 68  2  0
 67 69  1  0
 69 70  1  0
 70 71  1  0
 70 72  1  0
 72 73  2  0
 72 74  1  0
 74 75  1  0
 75 76  1  0
 75 77  1  0
 77 78  2  0
 77 79  1  0
 79 80  1  0
 80 81  1  0
 80 82  1  0
 82 83  2  0
 82 84  1  0
 84 85  1  0
 85 86  1  0
 85 87  1  0
 87 88  2  0
 87 89  1  0
 89 90  1  0
 90 91  1  0
 91 92  1  0
 91 93  2  0
 90 94  1  0
 94 95  1  0
 95 96  1  0
 45  5  1  0
 14  9  2  0
 96 11  1  0
  1 97  1  0
  1 98  1  0
  1 99  1  0
  4100  1  0
  5101  1  1
  6102  1  0
  6103  1  0
  8104  1  0
  8105  1  0
 10106  1  0
 12107  1  0
 14108  1  0
 15109  1  0
 15110  1  0
 17111  1  0
 17112  1  0
 18113  1  1
 19114  1  0
 22115  1  6
 23116  1  0
 23117  1  0
 23118  1  0
 24119  1  0
 27120  1  6
 28121  1  0
 28122  1  0
 28123  1  0
 29124  1  0
 32125  1  1
 33126  1  0
 33127  1  0
 33128  1  0
 34129  1  0
 37130  1  1
 38131  1  0
 38132  1  0
 38133  1  0
 39134  1  0
 42135  1  1
 43136  1  0
 43137  1  0
 43138  1  0
 44139  1  0
 49140  1  0
 50141  1  1
 51142  1  0
 51143  1  0
 51144  1  0
 54145  1  0
 55146  1  1
 56147  1  0
 56148  1  0
 56149  1  0
 59150  1  0
 60151  1  6
 61152  1  0
 61153  1  0
 61154  1  0
 64155  1  0
 65156  1  1
 66157  1  0
 66158  1  0
 66159  1  0
 69160  1  0
 70161  1  1
 71162  1  0
 71163  1  0
 71164  1  0
 74165  1  0
 75166  1  1
 76167  1  0
 76168  1  0
 76169  1  0
 79170  1  0
 80171  1  1
 81172  1  0
 81173  1  0
 81174  1  0
 84175  1  0
 85176  1  6
 86177  1  0
 86178  1  0
 86179  1  0
 89180  1  0
 90181  1  6
 92182  1  0
 92183  1  0
 94184  1  0
 94185  1  0
 96186  1  0
 96187  1  0
M  END
