
     RDKit          3D

177179  0  0  0  0  0  0  0  0999 V2000
    8.3662    7.9993   -0.4462 C   0  0  0  0  0  0  0  0  0  0  0  0
    8.4259    6.6092   -0.9830 C   0  0  0  0  0  0  0  0  0  0  0  0
    9.4874    6.2007   -1.5274 O   0  0  0  0  0  0  0  0  0  0  0  0
    7.3022    5.7277   -0.8460 N   0  0  0  0  0  0  0  0  0  0  0  0
    7.3953    4.2899   -1.1244 C   0  0  1  0  0  0  0  0  0  0  0  0
    6.5017    3.4956   -0.1522 C   0  0  0  0  0  0  0  0  0  0  0  0
    4.7034    3.8312   -0.3668 S   0  0  0  0  0  0  0  0  0  0  0  0
    4.2735    3.9432    1.4066 C   0  0  0  0  0  0  0  0  0  0  0  0
    2.9186    3.3452    1.6464 C   0  0  0  0  0  0  0  0  0  0  0  0
    1.8001    4.1624    1.8855 C   0  0  0  0  0  0  0  0  0  0  0  0
    0.5588    3.5857    2.1965 C   0  0  0  0  0  0  0  0  0  0  0  0
    0.4640    2.1924    2.3258 C   0  0  0  0  0  0  0  0  0  0  0  0
    1.5655    1.3599    2.0624 C   0  0  0  0  0  0  0  0  0  0  0  0
    2.7924    1.9482    1.7213 C   0  0  0  0  0  0  0  0  0  0  0  0
    1.4789   -0.1328    2.2752 C   0  0  0  0  0  0  0  0  0  0  0  0
   -0.1146   -0.7871    1.6618 S   0  0  0  0  0  0  0  0  0  0  0  0
    0.5033   -1.5551    0.1170 C   0  0  0  0  0  0  0  0  0  0  0  0
    0.9166   -3.0183    0.3391 C   0  0  2  0  0  0  0  0  0  0  0  0
    1.3291   -3.6012   -0.9445 N   0  0  0  0  0  0  0  0  0  0  0  0
    2.5193   -4.3751   -1.1987 C   0  0  0  0  0  0  0  0  0  0  0  0
    2.6913   -4.8058   -2.3720 O   0  0  0  0  0  0  0  0  0  0  0  0
    3.4996   -4.7828   -0.1109 C   0  0  1  0  0  0  0  0  0  0  0  0
    3.0091   -6.0887    0.5275 C   0  0  0  0  0  0  0  0  0  0  0  0
    4.8558   -4.9714   -0.6571 N   0  0  0  0  0  0  0  0  0  0  0  0
    6.0535   -5.1069    0.1358 C   0  0  0  0  0  0  0  0  0  0  0  0
    7.1100   -5.4772   -0.4424 O   0  0  0  0  0  0  0  0  0  0  0  0
    6.1171   -4.7110    1.5985 C   0  0  1  0  0  0  0  0  0  0  0  0
    6.9646   -5.7071    2.4107 C   0  0  0  0  0  0  0  0  0  0  0  0
    6.6269   -3.3461    1.7523 N   0  0  0  0  0  0  0  0  0  0  0  0
    7.9915   -2.9771    1.5447 C   0  0  0  0  0  0  0  0  0  0  0  0
    8.6624   -3.5026    0.6088 O   0  0  0  0  0  0  0  0  0  0  0  0
    8.6629   -2.0206    2.4902 C   0  0  1  0  0  0  0  0  0  0  0  0
    9.6361   -2.8061    3.3768 C   0  0  0  0  0  0  0  0  0  0  0  0
    9.3730   -0.9946    1.7213 N   0  0  0  0  0  0  0  0  0  0  0  0
    8.6625    0.0232    1.0012 C   0  0  0  0  0  0  0  0  0  0  0  0
    7.4985    0.3505    1.3649 O   0  0  0  0  0  0  0  0  0  0  0  0
    9.2345    0.6868   -0.2338 C   0  0  1  0  0  0  0  0  0  0  0  0
   10.7471    0.4973   -0.3800 C   0  0  0  0  0  0  0  0  0  0  0  0
    8.5539    0.1598   -1.4180 N   0  0  0  0  0  0  0  0  0  0  0  0
    8.0925    0.9795   -2.5047 C   0  0  0  0  0  0  0  0  0  0  0  0
    7.0957    0.5957   -3.1717 O   0  0  0  0  0  0  0  0  0  0  0  0
    8.8509    2.2008   -2.9723 C   0  0  1  0  0  0  0  0  0  0  0  0
    9.7886    1.8021   -4.1133 C   0  0  0  0  0  0  0  0  0  0  0  0
    7.9153    3.2443   -3.4325 N   0  0  0  0  0  0  0  0  0  0  0  0
    7.0669    4.0247   -2.5723 C   0  0  0  0  0  0  0  0  0  0  0  0
    6.0256    4.5432   -3.0706 O   0  0  0  0  0  0  0  0  0  0  0  0
   -0.2090   -3.8450    0.9081 C   0  0  0  0  0  0  0  0  0  0  0  0
   -0.0053   -4.5813    1.9070 O   0  0  0  0  0  0  0  0  0  0  0  0
   -1.5148   -3.7976    0.3129 N   0  0  0  0  0  0  0  0  0  0  0  0
   -2.3303   -4.9789    0.0059 C   0  0  2  0  0  0  0  0  0  0  0  0
   -1.4762   -6.2271   -0.2592 C   0  0  0  0  0  0  0  0  0  0  0  0
   -3.1563   -4.6775   -1.2267 C   0  0  0  0  0  0  0  0  0  0  0  0
   -2.5726   -4.2139   -2.2443 O   0  0  0  0  0  0  0  0  0  0  0  0
   -4.5717   -4.9103   -1.2919 N   0  0  0  0  0  0  0  0  0  0  0  0
   -5.3386   -5.6421   -0.2779 C   0  0  2  0  0  0  0  0  0  0  0  0
   -6.6525   -6.1528   -0.8720 C   0  0  0  0  0  0  0  0  0  0  0  0
   -5.5887   -4.7993    0.9521 C   0  0  0  0  0  0  0  0  0  0  0  0
   -5.9226   -5.3677    2.0261 O   0  0  0  0  0  0  0  0  0  0  0  0
   -5.3315   -3.3888    0.9641 N   0  0  0  0  0  0  0  0  0  0  0  0
   -6.1173   -2.4441    0.1643 C   0  0  2  0  0  0  0  0  0  0  0  0
   -5.1897   -1.3874   -0.4402 C   0  0  0  0  0  0  0  0  0  0  0  0
   -7.1673   -1.7703    1.0223 C   0  0  0  0  0  0  0  0  0  0  0  0
   -6.8600   -1.4294    2.2033 O   0  0  0  0  0  0  0  0  0  0  0  0
   -8.4812   -1.4150    0.5378 N   0  0  0  0  0  0  0  0  0  0  0  0
   -9.2210   -2.0807   -0.5435 C   0  0  2  0  0  0  0  0  0  0  0  0
   -9.4439   -3.5657   -0.2071 C   0  0  0  0  0  0  0  0  0  0  0  0
   -8.5461   -1.8361   -1.8779 C   0  0  0  0  0  0  0  0  0  0  0  0
   -8.1416   -2.8022   -2.5783 O   0  0  0  0  0  0  0  0  0  0  0  0
   -8.3579   -0.4988   -2.3673 N   0  0  0  0  0  0  0  0  0  0  0  0
   -9.3944    0.5323   -2.2560 C   0  0  2  0  0  0  0  0  0  0  0  0
  -10.5219    0.2241   -3.2454 C   0  0  0  0  0  0  0  0  0  0  0  0
   -8.8136    1.9007   -2.5562 C   0  0  0  0  0  0  0  0  0  0  0  0
   -8.2020    2.0592   -3.6489 O   0  0  0  0  0  0  0  0  0  0  0  0
   -8.9376    3.0295   -1.6735 N   0  0  0  0  0  0  0  0  0  0  0  0
   -9.6556    3.0449   -0.3914 C   0  0  2  0  0  0  0  0  0  0  0  0
  -11.1738    3.0872   -0.6420 C   0  0  0  0  0  0  0  0  0  0  0  0
   -9.1933    4.2311    0.4330 C   0  0  0  0  0  0  0  0  0  0  0  0
   -9.9714    5.2143    0.6026 O   0  0  0  0  0  0  0  0  0  0  0  0
   -7.8767    4.2979    1.0097 N   0  0  0  0  0  0  0  0  0  0  0  0
   -6.8164    3.3036    0.8033 C   0  0  2  0  0  0  0  0  0  0  0  0
   -6.4317    2.6590    2.1354 C   0  0  0  0  0  0  0  0  0  0  0  0
   -5.6269    3.9503    0.1448 C   0  0  0  0  0  0  0  0  0  0  0  0
   -5.2553    3.5290   -0.9804 O   0  0  0  0  0  0  0  0  0  0  0  0
   -4.8868    4.9896    0.8057 N   0  0  0  0  0  0  0  0  0  0  0  0
   -3.5032    5.2899    0.4091 C   0  0  1  0  0  0  0  0  0  0  0  0
   -3.4941    6.1712   -0.8151 C   0  0  0  0  0  0  0  0  0  0  0  0
   -2.9519    5.6893   -2.0483 N   0  0  0  0  0  0  0  0  0  0  0  0
   -3.9459    7.3493   -0.7582 O   0  0  0  0  0  0  0  0  0  0  0  0
   -2.7213    5.9521    1.5602 C   0  0  0  0  0  0  0  0  0  0  0  0
   -0.9058    5.7818    1.2798 S   0  0  0  0  0  0  0  0  0  0  0  0
   -0.6549    4.4327    2.4928 C   0  0  0  0  0  0  0  0  0  0  0  0
    9.1377    8.1236    0.3429 H   0  0  0  0  0  0  0  0  0  0  0  0
    7.3710    8.2201   -0.0059 H   0  0  0  0  0  0  0  0  0  0  0  0
    8.5680    8.7195   -1.2663 H   0  0  0  0  0  0  0  0  0  0  0  0
    6.3942    6.1206   -0.5231 H   0  0  0  0  0  0  0  0  0  0  0  0
    8.4315    3.9727   -0.9037 H   0  0  0  0  0  0  0  0  0  0  0  0
    6.6702    2.4061   -0.3021 H   0  0  0  0  0  0  0  0  0  0  0  0
    6.8394    3.7549    0.8733 H   0  0  0  0  0  0  0  0  0  0  0  0
    4.2994    5.0177    1.7016 H   0  0  0  0  0  0  0  0  0  0  0  0
    5.0061    3.4047    2.0390 H   0  0  0  0  0  0  0  0  0  0  0  0
    1.9068    5.2406    1.8518 H   0  0  0  0  0  0  0  0  0  0  0  0
   -0.4660    1.7597    2.6691 H   0  0  0  0  0  0  0  0  0  0  0  0
    3.6626    1.3263    1.5498 H   0  0  0  0  0  0  0  0  0  0  0  0
    2.3345   -0.6566    1.7960 H   0  0  0  0  0  0  0  0  0  0  0  0
    1.5282   -0.3403    3.3670 H   0  0  0  0  0  0  0  0  0  0  0  0
    1.3485   -0.9707   -0.3171 H   0  0  0  0  0  0  0  0  0  0  0  0
   -0.3262   -1.5055   -0.6295 H   0  0  0  0  0  0  0  0  0  0  0  0
    1.7483   -3.0160    1.0738 H   0  0  0  0  0  0  0  0  0  0  0  0
    0.6501   -3.5134   -1.7367 H   0  0  0  0  0  0  0  0  0  0  0  0
    3.5549   -3.9839    0.6536 H   0  0  0  0  0  0  0  0  0  0  0  0
    2.9627   -6.8965   -0.2399 H   0  0  0  0  0  0  0  0  0  0  0  0
    1.9994   -5.9552    0.9642 H   0  0  0  0  0  0  0  0  0  0  0  0
    3.6923   -6.4179    1.3355 H   0  0  0  0  0  0  0  0  0  0  0  0
    4.9684   -5.1568   -1.6807 H   0  0  0  0  0  0  0  0  0  0  0  0
    5.1020   -4.7442    2.0522 H   0  0  0  0  0  0  0  0  0  0  0  0
    7.0200   -5.3782    3.4716 H   0  0  0  0  0  0  0  0  0  0  0  0
    8.0013   -5.7771    2.0077 H   0  0  0  0  0  0  0  0  0  0  0  0
    6.4932   -6.7204    2.3682 H   0  0  0  0  0  0  0  0  0  0  0  0
    5.9251   -2.5598    1.7927 H   0  0  0  0  0  0  0  0  0  0  0  0
    7.8992   -1.5426    3.1476 H   0  0  0  0  0  0  0  0  0  0  0  0
   10.4595   -3.2296    2.7582 H   0  0  0  0  0  0  0  0  0  0  0  0
    9.1088   -3.6262    3.9037 H   0  0  0  0  0  0  0  0  0  0  0  0
   10.0753   -2.1235    4.1360 H   0  0  0  0  0  0  0  0  0  0  0  0
   10.4063   -0.8757    1.8645 H   0  0  0  0  0  0  0  0  0  0  0  0
    9.0426    1.7740   -0.1331 H   0  0  0  0  0  0  0  0  0  0  0  0
   11.2666    0.9431    0.4969 H   0  0  0  0  0  0  0  0  0  0  0  0
   11.0031   -0.5788   -0.4677 H   0  0  0  0  0  0  0  0  0  0  0  0
   11.1076    1.0170   -1.2911 H   0  0  0  0  0  0  0  0  0  0  0  0
    8.2660   -0.8430   -1.4200 H   0  0  0  0  0  0  0  0  0  0  0  0
    9.4981    2.6083   -2.1792 H   0  0  0  0  0  0  0  0  0  0  0  0
   10.4728    0.9884   -3.7879 H   0  0  0  0  0  0  0  0  0  0  0  0
   10.4065    2.6742   -4.4220 H   0  0  0  0  0  0  0  0  0  0  0  0
    9.2059    1.4482   -4.9902 H   0  0  0  0  0  0  0  0  0  0  0  0
    7.7490    3.3361   -4.4614 H   0  0  0  0  0  0  0  0  0  0  0  0
   -1.9930   -2.8671    0.2922 H   0  0  0  0  0  0  0  0  0  0  0  0
   -2.9825   -5.1834    0.8811 H   0  0  0  0  0  0  0  0  0  0  0  0
   -1.0206   -6.5863    0.6861 H   0  0  0  0  0  0  0  0  0  0  0  0
   -0.6800   -6.0026   -0.9976 H   0  0  0  0  0  0  0  0  0  0  0  0
   -2.1083   -7.0451   -0.6542 H   0  0  0  0  0  0  0  0  0  0  0  0
   -5.0486   -4.6552   -2.1888 H   0  0  0  0  0  0  0  0  0  0  0  0
   -4.7529   -6.5379    0.0243 H   0  0  0  0  0  0  0  0  0  0  0  0
   -7.2770   -6.6375   -0.0907 H   0  0  0  0  0  0  0  0  0  0  0  0
   -6.4394   -6.9057   -1.6598 H   0  0  0  0  0  0  0  0  0  0  0  0
   -7.2282   -5.3255   -1.3359 H   0  0  0  0  0  0  0  0  0  0  0  0
   -4.7665   -3.0134    1.7562 H   0  0  0  0  0  0  0  0  0  0  0  0
   -6.5810   -2.9940   -0.6730 H   0  0  0  0  0  0  0  0  0  0  0  0
   -4.6594   -0.8329    0.3632 H   0  0  0  0  0  0  0  0  0  0  0  0
   -4.4387   -1.8749   -1.0970 H   0  0  0  0  0  0  0  0  0  0  0  0
   -5.7765   -0.6689   -1.0492 H   0  0  0  0  0  0  0  0  0  0  0  0
   -9.0099   -0.6971    1.0847 H   0  0  0  0  0  0  0  0  0  0  0  0
  -10.2345   -1.6375   -0.6054 H   0  0  0  0  0  0  0  0  0  0  0  0
  -10.1301   -3.6356    0.6708 H   0  0  0  0  0  0  0  0  0  0  0  0
   -9.9173   -4.0923   -1.0628 H   0  0  0  0  0  0  0  0  0  0  0  0
   -8.4984   -4.0694    0.0657 H   0  0  0  0  0  0  0  0  0  0  0  0
   -7.5830   -0.3529   -3.0549 H   0  0  0  0  0  0  0  0  0  0  0  0
   -9.8212    0.5138   -1.2298 H   0  0  0  0  0  0  0  0  0  0  0  0
  -10.9077   -0.8052   -3.0901 H   0  0  0  0  0  0  0  0  0  0  0  0
  -11.3640    0.9366   -3.1179 H   0  0  0  0  0  0  0  0  0  0  0  0
  -10.1453    0.3036   -4.2903 H   0  0  0  0  0  0  0  0  0  0  0  0
   -8.4805    3.9189   -1.9847 H   0  0  0  0  0  0  0  0  0  0  0  0
   -9.4227    2.1356    0.1894 H   0  0  0  0  0  0  0  0  0  0  0  0
  -11.7165    3.1847    0.3256 H   0  0  0  0  0  0  0  0  0  0  0  0
  -11.5144    2.1508   -1.1288 H   0  0  0  0  0  0  0  0  0  0  0  0
  -11.4279    3.9453   -1.2962 H   0  0  0  0  0  0  0  0  0  0  0  0
   -7.6604    5.1246    1.6058 H   0  0  0  0  0  0  0  0  0  0  0  0
   -7.1652    2.4765    0.1451 H   0  0  0  0  0  0  0  0  0  0  0  0
   -6.0890    3.4196    2.8641 H   0  0  0  0  0  0  0  0  0  0  0  0
   -7.3105    2.1318    2.5612 H   0  0  0  0  0  0  0  0  0  0  0  0
   -5.6218    1.9148    1.9831 H   0  0  0  0  0  0  0  0  0  0  0  0
   -5.2468    5.3531    1.7118 H   0  0  0  0  0  0  0  0  0  0  0  0
   -2.9956    4.3281    0.1834 H   0  0  0  0  0  0  0  0  0  0  0  0
   -2.8914    6.3291   -2.8739 H   0  0  0  0  0  0  0  0  0  0  0  0
   -2.6669    4.6893   -2.1570 H   0  0  0  0  0  0  0  0  0  0  0  0
   -2.9643    7.0340    1.6373 H   0  0  0  0  0  0  0  0  0  0  0  0
   -2.9995    5.5035    2.5375 H   0  0  0  0  0  0  0  0  0  0  0  0
   -0.5490    4.8672    3.5103 H   0  0  0  0  0  0  0  0  0  0  0  0
   -1.5473    3.7783    2.4915 H   0  0  0  0  0  0  0  0  0  0  0  0
  1  2  1  0
  2  3  2  0
  2  4  1  0
  4  5  1  0
  5  6  1  0
  6  7  1  0
  7  8  1  0
  8  9  1  0
  9 10  1  0
 10 11  2  0
 11 12  1  0
 12 13  2  0
 13 14  1  0
 13 15  1  0
 15 16  1  0
 16 17  1  0
 17 18  1  0
 18 19  1  0
 19 20  1  0
 20 21  2  0
 20 22  1  0
 22 23  1  0
 22 24  1  0
 24 25  1  0
 25 26  2  0
 25 27  1  0
 27 28  1  0
 27 29  1  0
 29 30  1  0
 30 31  2  0
 30 32  1  0
 32 33  1  0
 32 34  1  0
 34 35  1  0
 35 36  2  0
 35 37  1  0
 37 38  1  0
 37 39  1  0
 39 40  1  0
 40 41  2  0
 40 42  1  0
 42 43  1  0
 42 44  1  0
 44 45  1  0
 45 46  2  0
 18 47  1  0
 47 48  2  0
 47 49  1  0
 49 50  1  0
 50 51  1  0
 50 52  1  0
 52 53  2  0
 52 54  1  0
 54 55  1  0
 55 56  1  0
 55 57  1  0
 57 58  2  0
 57 59  1  0
 59 60  1  0
 60 61  1  0
 60 62  1  0
 62 63  2  0
 62 64  1  0
 64 65  1  0
 65 66  1  0
 65 67  1  0
 67 68  2  0
 67 69  1  0
 69 70  1  0
 70 71  1  0
 70 72  1  0
 72 73  2  0
 72 74  1  0
 74 75  1  0
 75 76  1  0
 75 77  1  0
 77 78  2  0
 77 79  1  0
 79 80  1  0
 80 81  1  0
 80 82  1  0
 82 83  2  0
 82 84  1  0
 84 85  1  0
 85 86  1  0
 86 87  1  0
 86 88  2  0
 85 89  1  0
 89 90  1  0
 90 91  1  0
 45  5  1  0
 14  9  2  0
 91 11  1  0
  1 92  1  0
  1 93  1  0
  1 94  1  0
  4 95  1  0
  5 96  1  6
  6 97  1  0
  6 98  1  0
  8 99  1  0
  8100  1  0
 10101  1  0
 12102  1  0
 14103  1  0
 15104  1  0
 15105  1  0
 17106  1  0
 17107  1  0
 18108  1  1
 19109  1  0
 22110  1  1
 23111  1  0
 23112  1  0
 23113  1  0
 24114  1  0
 27115  1  1
 28116  1  0
 28117  1  0
 28118  1  0
 29119  1  0
 32120  1  1
 33121  1  0
 33122  1  0
 33123  1  0
 34124  1  0
 37125  1  1
 38126  1  0
 38127  1  0
 38128  1  0
 39129  1  0
 42130  1  1
 43131  1  0
 43132  1  0
 43133  1  0
 44134  1  0
 49135  1  0
 50136  1  1
 51137  1  0
 51138  1  0
 51139  1  0
 54140  1  0
 55141  1  1
 56142  1  0
 56143  1  0
 56144  1  0
 59145  1  0
 60146  1  6
 61147  1  0
 61148  1  0
 61149  1  0
 64150  1  0
 65151  1  6
 66152  1  0
 66153  1  0
 66154  1  0
 69155  1  0
 70156  1  1
 71157  1  0
 71158  1  0
 71159  1  0
 74160  1  0
 75161  1  1
 76162  1  0
 76163  1  0
 76164  1  0
 79165  1  0
 80166  1  6
 81167  1  0
 81168  1  0
 81169  1  0
 84170  1  0
 85171  1  6
 87172  1  0
 87173  1  0
 89174  1  0
 89175  1  0
 91176  1  0
 91177  1  0
M  END
