
     RDKit          3D

207209  0  0  0  0  0  0  0  0999 V2000
  -10.5808    6.2518   -3.2037 C   0  0  0  0  0  0  0  0  0  0  0  0
  -10.9812    6.4703   -1.7774 C   0  0  0  0  0  0  0  0  0  0  0  0
  -12.0562    7.0806   -1.5451 O   0  0  0  0  0  0  0  0  0  0  0  0
  -10.1768    6.0357   -0.6567 N   0  0  0  0  0  0  0  0  0  0  0  0
   -9.0621    5.0820   -0.7328 C   0  0  1  0  0  0  0  0  0  0  0  0
   -8.2652    5.1228    0.5861 C   0  0  0  0  0  0  0  0  0  0  0  0
   -6.8980    3.9039    0.6469 S   0  0  0  0  0  0  0  0  0  0  0  0
   -5.7014    4.8283   -0.3751 C   0  0  0  0  0  0  0  0  0  0  0  0
   -4.3903    4.0764   -0.3858 C   0  0  0  0  0  0  0  0  0  0  0  0
   -3.2336    4.6482    0.1546 C   0  0  0  0  0  0  0  0  0  0  0  0
   -2.0343    3.9258    0.2234 C   0  0  0  0  0  0  0  0  0  0  0  0
   -2.0161    2.5821   -0.2055 C   0  0  0  0  0  0  0  0  0  0  0  0
   -3.1843    1.9871   -0.7286 C   0  0  0  0  0  0  0  0  0  0  0  0
   -4.3420    2.7662   -0.8854 C   0  0  0  0  0  0  0  0  0  0  0  0
   -3.2715    0.5316   -1.1205 C   0  0  0  0  0  0  0  0  0  0  0  0
   -1.9354   -0.5460   -0.4813 S   0  0  0  0  0  0  0  0  0  0  0  0
   -2.6226   -2.1055   -1.1854 C   0  0  0  0  0  0  0  0  0  0  0  0
   -2.5252   -3.2974   -0.2126 C   0  0  2  0  0  0  0  0  0  0  0  0
   -3.1372   -2.9539    1.0771 N   0  0  0  0  0  0  0  0  0  0  0  0
   -4.3119   -3.5643    1.6334 C   0  0  0  0  0  0  0  0  0  0  0  0
   -4.8123   -3.0494    2.6725 O   0  0  0  0  0  0  0  0  0  0  0  0
   -4.9227   -4.8307    1.0640 C   0  0  1  0  0  0  0  0  0  0  0  0
   -5.8986   -5.5189    2.0299 C   0  0  0  0  0  0  0  0  0  0  0  0
   -5.5476   -4.6204   -0.2523 N   0  0  0  0  0  0  0  0  0  0  0  0
   -6.8480   -4.0524   -0.4924 C   0  0  0  0  0  0  0  0  0  0  0  0
   -7.5180   -4.5121   -1.4546 O   0  0  0  0  0  0  0  0  0  0  0  0
   -7.3825   -2.8740    0.2803 C   0  0  1  0  0  0  0  0  0  0  0  0
   -7.1927   -1.5615   -0.4970 C   0  0  0  0  0  0  0  0  0  0  0  0
   -8.7809   -3.0871    0.6849 N   0  0  0  0  0  0  0  0  0  0  0  0
   -9.9126   -3.0949   -0.2236 C   0  0  0  0  0  0  0  0  0  0  0  0
   -9.7513   -2.8628   -1.4497 O   0  0  0  0  0  0  0  0  0  0  0  0
  -11.3125   -3.3870    0.2611 C   0  0  1  0  0  0  0  0  0  0  0  0
  -11.6752   -4.8682    0.0511 C   0  0  0  0  0  0  0  0  0  0  0  0
  -11.4765   -3.0285    1.6758 N   0  0  0  0  0  0  0  0  0  0  0  0
  -12.1150   -1.8214    2.1264 C   0  0  0  0  0  0  0  0  0  0  0  0
  -12.6470   -1.8063    3.2704 O   0  0  0  0  0  0  0  0  0  0  0  0
  -12.1739   -0.5806    1.2615 C   0  0  1  0  0  0  0  0  0  0  0  0
  -13.5877   -0.4418    0.6810 C   0  0  0  0  0  0  0  0  0  0  0  0
  -11.8321    0.6045    2.0624 N   0  0  0  0  0  0  0  0  0  0  0  0
  -11.6798    1.9356    1.5484 C   0  0  0  0  0  0  0  0  0  0  0  0
  -11.7312    2.8995    2.3663 O   0  0  0  0  0  0  0  0  0  0  0  0
  -11.3729    2.2326    0.0965 C   0  0  1  0  0  0  0  0  0  0  0  0
  -12.4563    3.1640   -0.4766 C   0  0  0  0  0  0  0  0  0  0  0  0
  -10.0405    2.8336    0.0250 N   0  0  0  0  0  0  0  0  0  0  0  0
   -9.6243    3.7067   -1.0364 C   0  0  0  0  0  0  0  0  0  0  0  0
   -9.7651    3.3342   -2.2317 O   0  0  0  0  0  0  0  0  0  0  0  0
   -1.1222   -3.8023   -0.0104 C   0  0  0  0  0  0  0  0  0  0  0  0
   -0.1207   -3.0837   -0.2987 O   0  0  0  0  0  0  0  0  0  0  0  0
   -0.9284   -5.1484    0.4410 N   0  0  0  0  0  0  0  0  0  0  0  0
   -0.1286   -6.0821   -0.3524 C   0  0  2  0  0  0  0  0  0  0  0  0
   -1.0259   -6.8096   -1.3562 C   0  0  0  0  0  0  0  0  0  0  0  0
    0.5748   -7.0913    0.5287 C   0  0  0  0  0  0  0  0  0  0  0  0
    0.1126   -7.3460    1.6727 O   0  0  0  0  0  0  0  0  0  0  0  0
    1.7119   -7.8421    0.0744 N   0  0  0  0  0  0  0  0  0  0  0  0
    2.5793   -7.4499   -1.0446 C   0  0  2  0  0  0  0  0  0  0  0  0
    3.2626   -8.6941   -1.6468 C   0  0  0  0  0  0  0  0  0  0  0  0
    3.5534   -6.3778   -0.5946 C   0  0  0  0  0  0  0  0  0  0  0  0
    3.0964   -5.2637   -0.2367 O   0  0  0  0  0  0  0  0  0  0  0  0
    4.9801   -6.5599   -0.6090 N   0  0  0  0  0  0  0  0  0  0  0  0
    5.6985   -7.4727    0.2953 C   0  0  2  0  0  0  0  0  0  0  0  0
    5.0913   -7.4639    1.7087 C   0  0  0  0  0  0  0  0  0  0  0  0
    7.1499   -7.0783    0.3729 C   0  0  0  0  0  0  0  0  0  0  0  0
    8.0434   -7.8972    0.0142 O   0  0  0  0  0  0  0  0  0  0  0  0
    7.5203   -5.7886    0.8891 N   0  0  0  0  0  0  0  0  0  0  0  0
    8.8229   -5.5628    1.5245 C   0  0  2  0  0  0  0  0  0  0  0  0
    8.7675   -4.3140    2.4129 C   0  0  0  0  0  0  0  0  0  0  0  0
    9.9259   -5.4106    0.5038 C   0  0  0  0  0  0  0  0  0  0  0  0
   11.1350   -5.5022    0.8775 O   0  0  0  0  0  0  0  0  0  0  0  0
    9.6305   -5.2084   -0.8798 N   0  0  0  0  0  0  0  0  0  0  0  0
    9.5688   -3.8532   -1.4410 C   0  0  2  0  0  0  0  0  0  0  0  0
    8.5945   -3.8353   -2.6270 C   0  0  0  0  0  0  0  0  0  0  0  0
   10.9511   -3.4251   -1.9035 C   0  0  0  0  0  0  0  0  0  0  0  0
   11.7039   -4.2966   -2.4320 O   0  0  0  0  0  0  0  0  0  0  0  0
   11.4340   -2.0747   -1.8261 N   0  0  0  0  0  0  0  0  0  0  0  0
   11.2261   -1.1124   -0.7287 C   0  0  2  0  0  0  0  0  0  0  0  0
   11.3862   -1.7427    0.6594 C   0  0  0  0  0  0  0  0  0  0  0  0
    9.9357   -0.3534   -0.8918 C   0  0  0  0  0  0  0  0  0  0  0  0
    8.9762   -0.8144   -1.5758 O   0  0  0  0  0  0  0  0  0  0  0  0
    9.8088    0.9406   -0.2957 N   0  0  0  0  0  0  0  0  0  0  0  0
    9.6243    2.1356   -1.1228 C   0  0  2  0  0  0  0  0  0  0  0  0
   10.9063    2.4328   -1.9128 C   0  0  0  0  0  0  0  0  0  0  0  0
    9.2522    3.3459   -0.2924 C   0  0  0  0  0  0  0  0  0  0  0  0
    8.3415    4.1113   -0.6992 O   0  0  0  0  0  0  0  0  0  0  0  0
    9.8437    3.5546    1.0058 N   0  0  0  0  0  0  0  0  0  0  0  0
    9.3234    4.5521    1.9658 C   0  0  2  0  0  0  0  0  0  0  0  0
   10.0033    4.3550    3.3296 C   0  0  0  0  0  0  0  0  0  0  0  0
    7.8199    4.4395    2.1257 C   0  0  0  0  0  0  0  0  0  0  0  0
    7.3153    3.2914    2.2674 O   0  0  0  0  0  0  0  0  0  0  0  0
    6.9401    5.5759    2.0588 N   0  0  0  0  0  0  0  0  0  0  0  0
    7.3406    6.9345    1.6549 C   0  0  2  0  0  0  0  0  0  0  0  0
    8.1014    7.6269    2.8128 C   0  0  0  0  0  0  0  0  0  0  0  0
    6.1184    7.7433    1.2589 C   0  0  0  0  0  0  0  0  0  0  0  0
    5.9051    8.8717    1.7894 O   0  0  0  0  0  0  0  0  0  0  0  0
    5.1630    7.2747    0.3040 N   0  0  0  0  0  0  0  0  0  0  0  0
    5.4539    6.3445   -0.7922 C   0  0  2  0  0  0  0  0  0  0  0  0
    5.7547    7.1286   -2.0782 C   0  0  0  0  0  0  0  0  0  0  0  0
    4.3126    5.3753   -0.9875 C   0  0  0  0  0  0  0  0  0  0  0  0
    4.4673    4.1743   -0.6434 O   0  0  0  0  0  0  0  0  0  0  0  0
    3.0853    5.7646   -1.6353 N   0  0  0  0  0  0  0  0  0  0  0  0
    1.9127    6.3309   -0.9383 C   0  0  2  0  0  0  0  0  0  0  0  0
    2.0128    7.8303   -0.8594 C   0  0  0  0  0  0  0  0  0  0  0  0
    2.2599    8.5919   -2.0431 N   0  0  0  0  0  0  0  0  0  0  0  0
    1.8180    8.4481    0.2226 O   0  0  0  0  0  0  0  0  0  0  0  0
    1.6619    5.6415    0.4214 C   0  0  0  0  0  0  0  0  0  0  0  0
    0.7782    4.0418    0.1741 S   0  0  0  0  0  0  0  0  0  0  0  0
   -0.8371    4.5878    0.8645 C   0  0  0  0  0  0  0  0  0  0  0  0
  -10.5116    7.2370   -3.7191 H   0  0  0  0  0  0  0  0  0  0  0  0
   -9.5951    5.7637   -3.3095 H   0  0  0  0  0  0  0  0  0  0  0  0
  -11.3341    5.6141   -3.7149 H   0  0  0  0  0  0  0  0  0  0  0  0
  -10.4558    6.4088    0.2842 H   0  0  0  0  0  0  0  0  0  0  0  0
   -8.3703    5.3843   -1.5469 H   0  0  0  0  0  0  0  0  0  0  0  0
   -7.8579    6.1355    0.7526 H   0  0  0  0  0  0  0  0  0  0  0  0
   -8.9570    4.9033    1.4301 H   0  0  0  0  0  0  0  0  0  0  0  0
   -5.5711    5.8451    0.0481 H   0  0  0  0  0  0  0  0  0  0  0  0
   -6.0702    4.9212   -1.4133 H   0  0  0  0  0  0  0  0  0  0  0  0
   -3.2851    5.6545    0.5580 H   0  0  0  0  0  0  0  0  0  0  0  0
   -1.1084    2.0077   -0.0960 H   0  0  0  0  0  0  0  0  0  0  0  0
   -5.2327    2.3236   -1.3176 H   0  0  0  0  0  0  0  0  0  0  0  0
   -4.2263    0.1496   -0.7059 H   0  0  0  0  0  0  0  0  0  0  0  0
   -3.3203    0.4559   -2.2289 H   0  0  0  0  0  0  0  0  0  0  0  0
   -2.0759   -2.3353   -2.1198 H   0  0  0  0  0  0  0  0  0  0  0  0
   -3.6878   -1.9876   -1.4605 H   0  0  0  0  0  0  0  0  0  0  0  0
   -3.0679   -4.1297   -0.7013 H   0  0  0  0  0  0  0  0  0  0  0  0
   -2.6953   -2.1882    1.6409 H   0  0  0  0  0  0  0  0  0  0  0  0
   -4.0821   -5.5531    0.9281 H   0  0  0  0  0  0  0  0  0  0  0  0
   -5.3456   -5.8676    2.9318 H   0  0  0  0  0  0  0  0  0  0  0  0
   -6.3638   -6.3987    1.5383 H   0  0  0  0  0  0  0  0  0  0  0  0
   -6.7062   -4.8232    2.3632 H   0  0  0  0  0  0  0  0  0  0  0  0
   -5.1304   -5.1509   -1.0491 H   0  0  0  0  0  0  0  0  0  0  0  0
   -6.7987   -2.7672    1.2137 H   0  0  0  0  0  0  0  0  0  0  0  0
   -7.6096   -1.6138   -1.5220 H   0  0  0  0  0  0  0  0  0  0  0  0
   -7.6681   -0.7198    0.0475 H   0  0  0  0  0  0  0  0  0  0  0  0
   -6.1108   -1.3424   -0.5816 H   0  0  0  0  0  0  0  0  0  0  0  0
   -8.9631   -3.1681    1.7098 H   0  0  0  0  0  0  0  0  0  0  0  0
  -12.0210   -2.8022   -0.3586 H   0  0  0  0  0  0  0  0  0  0  0  0
  -11.6354   -5.1163   -1.0287 H   0  0  0  0  0  0  0  0  0  0  0  0
  -12.7084   -5.0403    0.4172 H   0  0  0  0  0  0  0  0  0  0  0  0
  -10.9800   -5.5256    0.6065 H   0  0  0  0  0  0  0  0  0  0  0  0
  -11.2059   -3.7253    2.4096 H   0  0  0  0  0  0  0  0  0  0  0  0
  -11.4400   -0.6863    0.4399 H   0  0  0  0  0  0  0  0  0  0  0  0
  -14.3206   -0.2634    1.4938 H   0  0  0  0  0  0  0  0  0  0  0  0
  -13.6329    0.3979   -0.0336 H   0  0  0  0  0  0  0  0  0  0  0  0
  -13.8791   -1.3603    0.1331 H   0  0  0  0  0  0  0  0  0  0  0  0
  -11.7388    0.5047    3.1044 H   0  0  0  0  0  0  0  0  0  0  0  0
  -11.3560    1.3097   -0.5076 H   0  0  0  0  0  0  0  0  0  0  0  0
  -12.3779    4.1847   -0.0248 H   0  0  0  0  0  0  0  0  0  0  0  0
  -12.3479    3.2487   -1.5720 H   0  0  0  0  0  0  0  0  0  0  0  0
  -13.4583    2.7599   -0.2579 H   0  0  0  0  0  0  0  0  0  0  0  0
   -9.2793    2.3876    0.5866 H   0  0  0  0  0  0  0  0  0  0  0  0
   -1.6158   -5.5376    1.1273 H   0  0  0  0  0  0  0  0  0  0  0  0
    0.6301   -5.4986   -0.9138 H   0  0  0  0  0  0  0  0  0  0  0  0
   -1.7758   -7.4207   -0.8156 H   0  0  0  0  0  0  0  0  0  0  0  0
   -1.5531   -6.0679   -1.9931 H   0  0  0  0  0  0  0  0  0  0  0  0
   -0.4180   -7.4734   -2.0048 H   0  0  0  0  0  0  0  0  0  0  0  0
    1.9715   -8.6946    0.6247 H   0  0  0  0  0  0  0  0  0  0  0  0
    1.9683   -7.0253   -1.8696 H   0  0  0  0  0  0  0  0  0  0  0  0
    2.4965   -9.3266   -2.1533 H   0  0  0  0  0  0  0  0  0  0  0  0
    3.7364   -9.3123   -0.8676 H   0  0  0  0  0  0  0  0  0  0  0  0
    4.0199   -8.4028   -2.4096 H   0  0  0  0  0  0  0  0  0  0  0  0
    5.5167   -5.8028   -1.0936 H   0  0  0  0  0  0  0  0  0  0  0  0
    5.6426   -8.5067   -0.1062 H   0  0  0  0  0  0  0  0  0  0  0  0
    4.0787   -7.9013    1.6995 H   0  0  0  0  0  0  0  0  0  0  0  0
    5.7125   -8.0715    2.4024 H   0  0  0  0  0  0  0  0  0  0  0  0
    5.0321   -6.4287    2.1034 H   0  0  0  0  0  0  0  0  0  0  0  0
    6.7801   -5.0431    0.9503 H   0  0  0  0  0  0  0  0  0  0  0  0
    9.0559   -6.4303    2.1775 H   0  0  0  0  0  0  0  0  0  0  0  0
    9.7310   -4.1793    2.9548 H   0  0  0  0  0  0  0  0  0  0  0  0
    7.9615   -4.4228    3.1620 H   0  0  0  0  0  0  0  0  0  0  0  0
    8.5511   -3.4080    1.8068 H   0  0  0  0  0  0  0  0  0  0  0  0
    9.7731   -6.0183   -1.5240 H   0  0  0  0  0  0  0  0  0  0  0  0
    9.1627   -3.1592   -0.6818 H   0  0  0  0  0  0  0  0  0  0  0  0
    8.5412   -2.8282   -3.0864 H   0  0  0  0  0  0  0  0  0  0  0  0
    8.9147   -4.5651   -3.4052 H   0  0  0  0  0  0  0  0  0  0  0  0
    7.5834   -4.1202   -2.2785 H   0  0  0  0  0  0  0  0  0  0  0  0
   12.1825   -1.8217   -2.5105 H   0  0  0  0  0  0  0  0  0  0  0  0
   12.0400   -0.3428   -0.8109 H   0  0  0  0  0  0  0  0  0  0  0  0
   12.3996   -2.1678    0.7517 H   0  0  0  0  0  0  0  0  0  0  0  0
   11.2546   -0.9751    1.4541 H   0  0  0  0  0  0  0  0  0  0  0  0
   10.6474   -2.5426    0.8340 H   0  0  0  0  0  0  0  0  0  0  0  0
    9.8865    1.0033    0.7383 H   0  0  0  0  0  0  0  0  0  0  0  0
    8.8079    1.9402   -1.8521 H   0  0  0  0  0  0  0  0  0  0  0  0
   10.7499    3.2943   -2.5970 H   0  0  0  0  0  0  0  0  0  0  0  0
   11.1787    1.5497   -2.5337 H   0  0  0  0  0  0  0  0  0  0  0  0
   11.7428    2.6512   -1.2197 H   0  0  0  0  0  0  0  0  0  0  0  0
   10.7174    3.0180    1.2464 H   0  0  0  0  0  0  0  0  0  0  0  0
    9.6116    5.5510    1.5786 H   0  0  0  0  0  0  0  0  0  0  0  0
   11.0758    4.6256    3.2702 H   0  0  0  0  0  0  0  0  0  0  0  0
    9.5333    5.0091    4.0894 H   0  0  0  0  0  0  0  0  0  0  0  0
    9.9185    3.2978    3.6659 H   0  0  0  0  0  0  0  0  0  0  0  0
    5.9254    5.3831    2.2211 H   0  0  0  0  0  0  0  0  0  0  0  0
    7.9919    6.8836    0.7605 H   0  0  0  0  0  0  0  0  0  0  0  0
    9.0130    7.0757    3.0923 H   0  0  0  0  0  0  0  0  0  0  0  0
    7.4630    7.7406    3.7031 H   0  0  0  0  0  0  0  0  0  0  0  0
    8.4297    8.6376    2.4853 H   0  0  0  0  0  0  0  0  0  0  0  0
    4.2944    7.8471    0.2236 H   0  0  0  0  0  0  0  0  0  0  0  0
    6.3603    5.7559   -0.5556 H   0  0  0  0  0  0  0  0  0  0  0  0
    4.9044    7.7990   -2.3417 H   0  0  0  0  0  0  0  0  0  0  0  0
    5.9366    6.4160   -2.9141 H   0  0  0  0  0  0  0  0  0  0  0  0
    6.6559    7.7464   -1.9383 H   0  0  0  0  0  0  0  0  0  0  0  0
    2.9039    5.3272   -2.5699 H   0  0  0  0  0  0  0  0  0  0  0  0
    1.0159    6.1371   -1.5769 H   0  0  0  0  0  0  0  0  0  0  0  0
    2.3781    8.1107   -2.9631 H   0  0  0  0  0  0  0  0  0  0  0  0
    2.3592    9.6257   -1.9931 H   0  0  0  0  0  0  0  0  0  0  0  0
    1.0757    6.3063    1.0989 H   0  0  0  0  0  0  0  0  0  0  0  0
    2.6119    5.4462    0.9615 H   0  0  0  0  0  0  0  0  0  0  0  0
   -0.8417    4.3736    1.9535 H   0  0  0  0  0  0  0  0  0  0  0  0
   -0.9494    5.6856    0.7310 H   0  0  0  0  0  0  0  0  0  0  0  0
  1  2  1  0
  2  3  2  0
  2  4  1  0
  4  5  1  0
  5  6  1  0
  6  7  1  0
  7  8  1  0
  8  9  1  0
  9 10  1  0
 10 11  2  0
 11 12  1  0
 12 13  2  0
 13 14  1  0
 13 15  1  0
 15 16  1  0
 16 17  1  0
 17 18  1  0
 18 19  1  0
 19 20  1  0
 20 21  2  0
 20 22  1  0
 22 23  1  0
 22 24  1  0
 24 25  1  0
 25 26  2  0
 25 27  1  0
 27 28  1  0
 27 29  1  0
 29 30  1  0
 30 31  2  0
 30 32  1  0
 32 33  1  0
 32 34  1  0
 34 35  1  0
 35 36  2  0
 35 37  1  0
 37 38  1  0
 37 39  1  0
 39 40  1  0
 40 41  2  0
 40 42  1  0
 42 43  1  0
 42 44  1  0
 44 45  1  0
 45 46  2  0
 18 47  1  0
 47 48  2  0
 47 49  1  0
 49 50  1  0
 50 51  1  0
 50 52  1  0
 52 53  2  0
 52 54  1  0
 54 55  1  0
 55 56  1  0
 55 57  1  0
 57 58  2  0
 57 59  1  0
 59 60  1  0
 60 61  1  0
 60 62  1  0
 62 63  2  0
 62 64  1  0
 64 65  1  0
 65 66  1  0
 65 67  1  0
 67 68  2  0
 67 69  1  0
 69 70  1  0
 70 71  1  0
 70 72  1  0
 72 73  2  0
 72 74  1  0
 74 75  1  0
 75 76  1  0
 75 77  1  0
 77 78  2  0
 77 79  1  0
 79 80  1  0
 80 81  1  0
 80 82  1  0
 82 83  2  0
 82 84  1  0
 84 85  1  0
 85 86  1  0
 85 87  1  0
 87 88  2  0
 87 89  1  0
 89 90  1  0
 90 91  1  0
 90 92  1  0
 92 93  2  0
 92 94  1  0
 94 95  1  0
 95 96  1  0
 95 97  1  0
 97 98  2  0
 97 99  1  0
 99100  1  0
100101  1  0
101102  1  0
101103  2  0
100104  1  0
104105  1  0
105106  1  0
 45  5  1  0
 14  9  2  0
106 11  1  0
  1107  1  0
  1108  1  0
  1109  1  0
  4110  1  0
  5111  1  6
  6112  1  0
  6113  1  0
  8114  1  0
  8115  1  0
 10116  1  0
 12117  1  0
 14118  1  0
 15119  1  0
 15120  1  0
 17121  1  0
 17122  1  0
 18123  1  6
 19124  1  0
 22125  1  6
 23126  1  0
 23127  1  0
 23128  1  0
 24129  1  0
 27130  1  1
 28131  1  0
 28132  1  0
 28133  1  0
 29134  1  0
 32135  1  6
 33136  1  0
 33137  1  0
 33138  1  0
 34139  1  0
 37140  1  6
 38141  1  0
 38142  1  0
 38143  1  0
 39144  1  0
 42145  1  6
 43146  1  0
 43147  1  0
 43148  1  0
 44149  1  0
 49150  1  0
 50151  1  6
 51152  1  0
 51153  1  0
 51154  1  0
 54155  1  0
 55156  1  6
 56157  1  0
 56158  1  0
 56159  1  0
 59160  1  0
 60161  1  6
 61162  1  0
 61163  1  0
 61164  1  0
 64165  1  0
 65166  1  1
 66167  1  0
 66168  1  0
 66169  1  0
 69170  1  0
 70171  1  1
 71172  1  0
 71173  1  0
 71174  1  0
 74175  1  0
 75176  1  6
 76177  1  0
 76178  1  0
 76179  1  0
 79180  1  0
 80181  1  6
 81182  1  0
 81183  1  0
 81184  1  0
 84185  1  0
 85186  1  6
 86187  1  0
 86188  1  0
 86189  1  0
 89190  1  0
 90191  1  6
 91192  1  0
 91193  1  0
 91194  1  0
 94195  1  0
 95196  1  1
 96197  1  0
 96198  1  0
 96199  1  0
 99200  1  0
100201  1  6
102202  1  0
102203  1  0
104204  1  0
104205  1  0
106206  1  0
106207  1  0
M  END
