
     RDKit          3D

207209  0  0  0  0  0  0  0  0999 V2000
  -10.7194    8.1724   -1.9862 C   0  0  0  0  0  0  0  0  0  0  0  0
  -10.2131    7.0018   -1.2080 C   0  0  0  0  0  0  0  0  0  0  0  0
  -10.9016    6.5814   -0.2335 O   0  0  0  0  0  0  0  0  0  0  0  0
   -8.9283    6.4243   -1.5069 N   0  0  0  0  0  0  0  0  0  0  0  0
   -8.5425    5.0316   -1.2189 C   0  0  1  0  0  0  0  0  0  0  0  0
   -7.0162    4.8557   -1.3826 C   0  0  0  0  0  0  0  0  0  0  0  0
   -6.0397    6.1544   -0.5227 S   0  0  0  0  0  0  0  0  0  0  0  0
   -5.6031    5.1880    0.9722 C   0  0  0  0  0  0  0  0  0  0  0  0
   -4.3862    4.3326    0.7449 C   0  0  0  0  0  0  0  0  0  0  0  0
   -3.1237    4.9235    0.5730 C   0  0  0  0  0  0  0  0  0  0  0  0
   -1.9725    4.1282    0.4822 C   0  0  0  0  0  0  0  0  0  0  0  0
   -2.0926    2.7338    0.5634 C   0  0  0  0  0  0  0  0  0  0  0  0
   -3.3553    2.1278    0.6750 C   0  0  0  0  0  0  0  0  0  0  0  0
   -4.4943    2.9370    0.7839 C   0  0  0  0  0  0  0  0  0  0  0  0
   -3.4784    0.6445    0.8755 C   0  0  0  0  0  0  0  0  0  0  0  0
   -2.4815   -0.3097   -0.3370 S   0  0  0  0  0  0  0  0  0  0  0  0
   -2.4429   -1.8181    0.6886 C   0  0  0  0  0  0  0  0  0  0  0  0
   -2.1302   -3.0791   -0.1493 C   0  0  2  0  0  0  0  0  0  0  0  0
   -3.1644   -3.2924   -1.1705 N   0  0  0  0  0  0  0  0  0  0  0  0
   -4.5710   -3.3992   -0.8653 C   0  0  0  0  0  0  0  0  0  0  0  0
   -5.3612   -2.5705   -1.3885 O   0  0  0  0  0  0  0  0  0  0  0  0
   -5.1219   -4.5040    0.0139 C   0  0  1  0  0  0  0  0  0  0  0  0
   -5.4907   -3.9551    1.3983 C   0  0  0  0  0  0  0  0  0  0  0  0
   -6.3077   -5.1014   -0.6098 N   0  0  0  0  0  0  0  0  0  0  0  0
   -6.9634   -6.2438   -0.0388 C   0  0  0  0  0  0  0  0  0  0  0  0
   -6.2901   -7.0907    0.6138 O   0  0  0  0  0  0  0  0  0  0  0  0
   -8.4600   -6.4575   -0.1695 C   0  0  1  0  0  0  0  0  0  0  0  0
   -9.1264   -6.6042    1.2066 C   0  0  0  0  0  0  0  0  0  0  0  0
   -9.1236   -5.3899   -0.9324 N   0  0  0  0  0  0  0  0  0  0  0  0
   -9.3397   -4.0588   -0.4379 C   0  0  0  0  0  0  0  0  0  0  0  0
   -8.4997   -3.5334    0.3432 O   0  0  0  0  0  0  0  0  0  0  0  0
  -10.5897   -3.2764   -0.7600 C   0  0  1  0  0  0  0  0  0  0  0  0
  -11.5036   -3.9996   -1.7509 C   0  0  0  0  0  0  0  0  0  0  0  0
  -11.3223   -3.0503    0.4903 N   0  0  0  0  0  0  0  0  0  0  0  0
  -11.9472   -1.8205    0.8987 C   0  0  0  0  0  0  0  0  0  0  0  0
  -12.7999   -1.8767    1.8270 O   0  0  0  0  0  0  0  0  0  0  0  0
  -11.6641   -0.4765    0.2408 C   0  0  1  0  0  0  0  0  0  0  0  0
  -12.6124   -0.2851   -0.9443 C   0  0  0  0  0  0  0  0  0  0  0  0
  -11.8610    0.6119    1.2040 N   0  0  0  0  0  0  0  0  0  0  0  0
  -11.0174    1.7682    1.2983 C   0  0  0  0  0  0  0  0  0  0  0  0
  -10.8206    2.2884    2.4291 O   0  0  0  0  0  0  0  0  0  0  0  0
  -10.5369    2.4977    0.0630 C   0  0  1  0  0  0  0  0  0  0  0  0
  -11.6317    3.4793   -0.3715 C   0  0  0  0  0  0  0  0  0  0  0  0
   -9.2516    3.1556    0.3478 N   0  0  0  0  0  0  0  0  0  0  0  0
   -8.9709    4.5529    0.1457 C   0  0  0  0  0  0  0  0  0  0  0  0
   -8.9109    5.3188    1.1478 O   0  0  0  0  0  0  0  0  0  0  0  0
   -1.9456   -4.3136    0.7132 C   0  0  0  0  0  0  0  0  0  0  0  0
   -2.1166   -4.2347    1.9625 O   0  0  0  0  0  0  0  0  0  0  0  0
   -1.5575   -5.5769    0.1509 N   0  0  0  0  0  0  0  0  0  0  0  0
   -0.7994   -5.7050   -1.0965 C   0  0  2  0  0  0  0  0  0  0  0  0
   -1.1273   -7.0377   -1.7819 C   0  0  0  0  0  0  0  0  0  0  0  0
    0.6720   -5.5242   -0.8022 C   0  0  0  0  0  0  0  0  0  0  0  0
    1.0898   -4.3842   -0.4670 O   0  0  0  0  0  0  0  0  0  0  0  0
    1.6147   -6.5916   -0.9360 N   0  0  0  0  0  0  0  0  0  0  0  0
    1.7788   -7.6415    0.0777 C   0  0  2  0  0  0  0  0  0  0  0  0
    1.8401   -7.0738    1.4992 C   0  0  0  0  0  0  0  0  0  0  0  0
    2.9971   -8.4951   -0.2116 C   0  0  0  0  0  0  0  0  0  0  0  0
    2.9067   -9.7383   -0.0154 O   0  0  0  0  0  0  0  0  0  0  0  0
    4.2188   -7.9653   -0.7624 N   0  0  0  0  0  0  0  0  0  0  0  0
    4.7957   -6.6502   -0.4451 C   0  0  2  0  0  0  0  0  0  0  0  0
    5.2700   -6.0009   -1.7430 C   0  0  0  0  0  0  0  0  0  0  0  0
    5.9065   -6.8210    0.5702 C   0  0  0  0  0  0  0  0  0  0  0  0
    6.0236   -7.9162    1.1911 O   0  0  0  0  0  0  0  0  0  0  0  0
    6.7842   -5.7447    0.9217 N   0  0  0  0  0  0  0  0  0  0  0  0
    7.9565   -5.3905    0.1003 C   0  0  2  0  0  0  0  0  0  0  0  0
    8.7024   -6.6386   -0.3912 C   0  0  0  0  0  0  0  0  0  0  0  0
    8.9091   -4.5162    0.8800 C   0  0  0  0  0  0  0  0  0  0  0  0
    9.5104   -4.9818    1.8805 O   0  0  0  0  0  0  0  0  0  0  0  0
    9.1853   -3.1808    0.4326 N   0  0  0  0  0  0  0  0  0  0  0  0
   10.5545   -2.6671    0.2378 C   0  0  2  0  0  0  0  0  0  0  0  0
   11.4372   -3.7433   -0.4182 C   0  0  0  0  0  0  0  0  0  0  0  0
   11.1496   -2.1501    1.5312 C   0  0  0  0  0  0  0  0  0  0  0  0
   10.6878   -2.5659    2.6297 O   0  0  0  0  0  0  0  0  0  0  0  0
   12.1837   -1.1436    1.5703 N   0  0  0  0  0  0  0  0  0  0  0  0
   13.0908   -0.8308    0.4542 C   0  0  2  0  0  0  0  0  0  0  0  0
   14.3341   -1.7335    0.5465 C   0  0  0  0  0  0  0  0  0  0  0  0
   13.4607    0.6409    0.4895 C   0  0  0  0  0  0  0  0  0  0  0  0
   14.6601    0.9840    0.6927 O   0  0  0  0  0  0  0  0  0  0  0  0
   12.4856    1.6768    0.2954 N   0  0  0  0  0  0  0  0  0  0  0  0
   11.1386    1.4698   -0.2495 C   0  0  2  0  0  0  0  0  0  0  0  0
   11.1623    1.7299   -1.7607 C   0  0  0  0  0  0  0  0  0  0  0  0
   10.1473    2.3338    0.5020 C   0  0  0  0  0  0  0  0  0  0  0  0
   10.1144    2.2642    1.7566 O   0  0  0  0  0  0  0  0  0  0  0  0
    9.2088    3.1837   -0.1823 N   0  0  0  0  0  0  0  0  0  0  0  0
    7.8374    3.4487    0.2917 C   0  0  2  0  0  0  0  0  0  0  0  0
    7.2011    2.1994    0.9154 C   0  0  0  0  0  0  0  0  0  0  0  0
    6.9806    3.8864   -0.8726 C   0  0  0  0  0  0  0  0  0  0  0  0
    6.9609    3.1840   -1.9216 O   0  0  0  0  0  0  0  0  0  0  0  0
    6.0948    5.0040   -0.7706 N   0  0  0  0  0  0  0  0  0  0  0  0
    6.5079    6.4132   -0.7128 C   0  0  2  0  0  0  0  0  0  0  0  0
    8.0278    6.6091   -0.8329 C   0  0  0  0  0  0  0  0  0  0  0  0
    5.9881    7.0342    0.5613 C   0  0  0  0  0  0  0  0  0  0  0  0
    6.4124    6.5855    1.6640 O   0  0  0  0  0  0  0  0  0  0  0  0
    5.0266    8.1054    0.5757 N   0  0  0  0  0  0  0  0  0  0  0  0
    4.1685    8.4723   -0.5588 C   0  0  2  0  0  0  0  0  0  0  0  0
    3.3614    9.7292   -0.2426 C   0  0  0  0  0  0  0  0  0  0  0  0
    3.2521    7.3364   -0.9576 C   0  0  0  0  0  0  0  0  0  0  0  0
    3.3848    6.8188   -2.0941 O   0  0  0  0  0  0  0  0  0  0  0  0
    2.1642    6.8985   -0.1243 N   0  0  0  0  0  0  0  0  0  0  0  0
    2.2980    6.5506    1.2980 C   0  0  1  0  0  0  0  0  0  0  0  0
    1.5516    7.5267    2.1799 C   0  0  0  0  0  0  0  0  0  0  0  0
    0.3688    8.1894    1.7281 N   0  0  0  0  0  0  0  0  0  0  0  0
    1.9584    7.7212    3.3546 O   0  0  0  0  0  0  0  0  0  0  0  0
    1.8794    5.0750    1.5416 C   0  0  0  0  0  0  0  0  0  0  0  0
    0.1339    4.8303    2.0574 S   0  0  0  0  0  0  0  0  0  0  0  0
   -0.6123    4.7606    0.3928 C   0  0  0  0  0  0  0  0  0  0  0  0
  -10.0364    8.4064   -2.8335 H   0  0  0  0  0  0  0  0  0  0  0  0
  -11.7254    7.9421   -2.3932 H   0  0  0  0  0  0  0  0  0  0  0  0
  -10.7887    9.0472   -1.3122 H   0  0  0  0  0  0  0  0  0  0  0  0
   -8.3842    6.8982   -2.2582 H   0  0  0  0  0  0  0  0  0  0  0  0
   -9.0289    4.3832   -1.9757 H   0  0  0  0  0  0  0  0  0  0  0  0
   -6.7127    3.8244   -1.0848 H   0  0  0  0  0  0  0  0  0  0  0  0
   -6.7801    4.9431   -2.4622 H   0  0  0  0  0  0  0  0  0  0  0  0
   -6.4642    4.5732    1.2998 H   0  0  0  0  0  0  0  0  0  0  0  0
   -5.3825    5.8958    1.7969 H   0  0  0  0  0  0  0  0  0  0  0  0
   -3.0319    6.0043    0.5668 H   0  0  0  0  0  0  0  0  0  0  0  0
   -1.1930    2.1252    0.5533 H   0  0  0  0  0  0  0  0  0  0  0  0
   -5.4650    2.4844    0.9412 H   0  0  0  0  0  0  0  0  0  0  0  0
   -3.1533    0.4155    1.9158 H   0  0  0  0  0  0  0  0  0  0  0  0
   -4.5368    0.3215    0.7682 H   0  0  0  0  0  0  0  0  0  0  0  0
   -1.6569   -1.6826    1.4596 H   0  0  0  0  0  0  0  0  0  0  0  0
   -3.4191   -1.9397    1.2024 H   0  0  0  0  0  0  0  0  0  0  0  0
   -1.1662   -2.8787   -0.6648 H   0  0  0  0  0  0  0  0  0  0  0  0
   -2.9308   -2.9447   -2.1190 H   0  0  0  0  0  0  0  0  0  0  0  0
   -4.3557   -5.2984    0.1285 H   0  0  0  0  0  0  0  0  0  0  0  0
   -6.0262   -4.7293    1.9971 H   0  0  0  0  0  0  0  0  0  0  0  0
   -4.5829   -3.6865    1.9720 H   0  0  0  0  0  0  0  0  0  0  0  0
   -6.1414   -3.0557    1.3125 H   0  0  0  0  0  0  0  0  0  0  0  0
   -6.7766   -4.6198   -1.4039 H   0  0  0  0  0  0  0  0  0  0  0  0
   -8.6099   -7.4191   -0.7120 H   0  0  0  0  0  0  0  0  0  0  0  0
   -8.7601   -7.5222    1.7204 H   0  0  0  0  0  0  0  0  0  0  0  0
   -8.8974   -5.7240    1.8521 H   0  0  0  0  0  0  0  0  0  0  0  0
  -10.2318   -6.6899    1.0929 H   0  0  0  0  0  0  0  0  0  0  0  0
   -9.3695   -5.6113   -1.9284 H   0  0  0  0  0  0  0  0  0  0  0  0
  -10.2793   -2.3176   -1.2279 H   0  0  0  0  0  0  0  0  0  0  0  0
  -12.4349   -3.4188   -1.9054 H   0  0  0  0  0  0  0  0  0  0  0  0
  -11.0040   -4.1006   -2.7376 H   0  0  0  0  0  0  0  0  0  0  0  0
  -11.7865   -5.0063   -1.3684 H   0  0  0  0  0  0  0  0  0  0  0  0
  -11.5296   -3.8912    1.0682 H   0  0  0  0  0  0  0  0  0  0  0  0
  -10.6153   -0.4555   -0.1170 H   0  0  0  0  0  0  0  0  0  0  0  0
  -13.6710   -0.3110   -0.6038 H   0  0  0  0  0  0  0  0  0  0  0  0
  -12.4239    0.6868   -1.4395 H   0  0  0  0  0  0  0  0  0  0  0  0
  -12.4559   -1.0791   -1.7017 H   0  0  0  0  0  0  0  0  0  0  0  0
  -12.6265    0.5444    1.9110 H   0  0  0  0  0  0  0  0  0  0  0  0
  -10.3661    1.7710   -0.7601 H   0  0  0  0  0  0  0  0  0  0  0  0
  -12.5669    2.9281   -0.5913 H   0  0  0  0  0  0  0  0  0  0  0  0
  -11.8353    4.2084    0.4368 H   0  0  0  0  0  0  0  0  0  0  0  0
  -11.3295    4.0132   -1.2940 H   0  0  0  0  0  0  0  0  0  0  0  0
   -8.4717    2.5700    0.7242 H   0  0  0  0  0  0  0  0  0  0  0  0
   -1.5735   -6.4042    0.7895 H   0  0  0  0  0  0  0  0  0  0  0  0
   -1.1053   -4.9083   -1.8083 H   0  0  0  0  0  0  0  0  0  0  0  0
   -2.1816   -7.0204   -2.1328 H   0  0  0  0  0  0  0  0  0  0  0  0
   -0.4691   -7.1930   -2.6685 H   0  0  0  0  0  0  0  0  0  0  0  0
   -1.0151   -7.8967   -1.0893 H   0  0  0  0  0  0  0  0  0  0  0  0
    2.2368   -6.5592   -1.7704 H   0  0  0  0  0  0  0  0  0  0  0  0
    0.8926   -8.3041    0.0363 H   0  0  0  0  0  0  0  0  0  0  0  0
    2.5959   -6.2720    1.6022 H   0  0  0  0  0  0  0  0  0  0  0  0
    2.0703   -7.8814    2.2288 H   0  0  0  0  0  0  0  0  0  0  0  0
    0.8486   -6.6496    1.7819 H   0  0  0  0  0  0  0  0  0  0  0  0
    4.8478   -8.6558   -1.2331 H   0  0  0  0  0  0  0  0  0  0  0  0
    4.0316   -5.9841   -0.0094 H   0  0  0  0  0  0  0  0  0  0  0  0
    6.1666   -6.5182   -2.1416 H   0  0  0  0  0  0  0  0  0  0  0  0
    5.4795   -4.9288   -1.5857 H   0  0  0  0  0  0  0  0  0  0  0  0
    4.4770   -6.0709   -2.5136 H   0  0  0  0  0  0  0  0  0  0  0  0
    6.7248   -5.3820    1.9009 H   0  0  0  0  0  0  0  0  0  0  0  0
    7.6195   -4.8194   -0.7860 H   0  0  0  0  0  0  0  0  0  0  0  0
    8.0468   -7.2581   -1.0265 H   0  0  0  0  0  0  0  0  0  0  0  0
    9.0474   -7.2537    0.4699 H   0  0  0  0  0  0  0  0  0  0  0  0
    9.5877   -6.3438   -1.0038 H   0  0  0  0  0  0  0  0  0  0  0  0
    8.4079   -2.6489   -0.0290 H   0  0  0  0  0  0  0  0  0  0  0  0
   10.4784   -1.8147   -0.4741 H   0  0  0  0  0  0  0  0  0  0  0  0
   10.8892   -4.2183   -1.2546 H   0  0  0  0  0  0  0  0  0  0  0  0
   11.7279   -4.5203    0.3151 H   0  0  0  0  0  0  0  0  0  0  0  0
   12.3492   -3.2982   -0.8559 H   0  0  0  0  0  0  0  0  0  0  0  0
   12.4629   -0.7897    2.5178 H   0  0  0  0  0  0  0  0  0  0  0  0
   12.6064   -1.0230   -0.5217 H   0  0  0  0  0  0  0  0  0  0  0  0
   14.0360   -2.7961    0.6068 H   0  0  0  0  0  0  0  0  0  0  0  0
   14.9740   -1.5929   -0.3473 H   0  0  0  0  0  0  0  0  0  0  0  0
   14.9183   -1.4996    1.4676 H   0  0  0  0  0  0  0  0  0  0  0  0
   12.8228    2.6687    0.3923 H   0  0  0  0  0  0  0  0  0  0  0  0
   10.8147    0.4254   -0.0932 H   0  0  0  0  0  0  0  0  0  0  0  0
   10.1418    1.6165   -2.1882 H   0  0  0  0  0  0  0  0  0  0  0  0
   11.5395    2.7567   -1.9660 H   0  0  0  0  0  0  0  0  0  0  0  0
   11.8358    0.9991   -2.2636 H   0  0  0  0  0  0  0  0  0  0  0  0
    9.5175    3.6489   -1.0690 H   0  0  0  0  0  0  0  0  0  0  0  0
    7.8626    4.2491    1.0623 H   0  0  0  0  0  0  0  0  0  0  0  0
    7.3389    1.3214    0.2608 H   0  0  0  0  0  0  0  0  0  0  0  0
    7.6431    1.9984    1.9100 H   0  0  0  0  0  0  0  0  0  0  0  0
    6.1117    2.3633    1.0796 H   0  0  0  0  0  0  0  0  0  0  0  0
    5.0837    4.8191   -0.9564 H   0  0  0  0  0  0  0  0  0  0  0  0
    6.0693    6.9158   -1.5965 H   0  0  0  0  0  0  0  0  0  0  0  0
    8.2522    7.6965   -0.9083 H   0  0  0  0  0  0  0  0  0  0  0  0
    8.5642    6.2097    0.0568 H   0  0  0  0  0  0  0  0  0  0  0  0
    8.4163    6.1150   -1.7475 H   0  0  0  0  0  0  0  0  0  0  0  0
    4.8845    8.5949    1.4895 H   0  0  0  0  0  0  0  0  0  0  0  0
    4.8220    8.7373   -1.4202 H   0  0  0  0  0  0  0  0  0  0  0  0
    4.0485   10.5709   -0.0062 H   0  0  0  0  0  0  0  0  0  0  0  0
    2.7373   10.0151   -1.1178 H   0  0  0  0  0  0  0  0  0  0  0  0
    2.6988    9.5656    0.6410 H   0  0  0  0  0  0  0  0  0  0  0  0
    1.2800    6.6412   -0.6100 H   0  0  0  0  0  0  0  0  0  0  0  0
    3.3694    6.6111    1.5880 H   0  0  0  0  0  0  0  0  0  0  0  0
   -0.1353    8.8510    2.3629 H   0  0  0  0  0  0  0  0  0  0  0  0
   -0.0429    8.0010    0.7896 H   0  0  0  0  0  0  0  0  0  0  0  0
    2.1320    4.4569    0.6537 H   0  0  0  0  0  0  0  0  0  0  0  0
    2.5080    4.6850    2.3675 H   0  0  0  0  0  0  0  0  0  0  0  0
    0.0214    4.1661   -0.2972 H   0  0  0  0  0  0  0  0  0  0  0  0
   -0.7081    5.7800   -0.0178 H   0  0  0  0  0  0  0  0  0  0  0  0
  1  2  1  0
  2  3  2  0
  2  4  1  0
  4  5  1  0
  5  6  1  0
  6  7  1  0
  7  8  1  0
  8  9  1  0
  9 10  1  0
 10 11  2  0
 11 12  1  0
 12 13  2  0
 13 14  1  0
 13 15  1  0
 15 16  1  0
 16 17  1  0
 17 18  1  0
 18 19  1  0
 19 20  1  0
 20 21  2  0
 20 22  1  0
 22 23  1  0
 22 24  1  0
 24 25  1  0
 25 26  2  0
 25 27  1  0
 27 28  1  0
 27 29  1  0
 29 30  1  0
 30 31  2  0
 30 32  1  0
 32 33  1  0
 32 34  1  0
 34 35  1  0
 35 36  2  0
 35 37  1  0
 37 38  1  0
 37 39  1  0
 39 40  1  0
 40 41  2  0
 40 42  1  0
 42 43  1  0
 42 44  1  0
 44 45  1  0
 45 46  2  0
 18 47  1  0
 47 48  2  0
 47 49  1  0
 49 50  1  0
 50 51  1  0
 50 52  1  0
 52 53  2  0
 52 54  1  0
 54 55  1  0
 55 56  1  0
 55 57  1  0
 57 58  2  0
 57 59  1  0
 59 60  1  0
 60 61  1  0
 60 62  1  0
 62 63  2  0
 62 64  1  0
 64 65  1  0
 65 66  1  0
 65 67  1  0
 67 68  2  0
 67 69  1  0
 69 70  1  0
 70 71  1  0
 70 72  1  0
 72 73  2  0
 72 74  1  0
 74 75  1  0
 75 76  1  0
 75 77  1  0
 77 78  2  0
 77 79  1  0
 79 80  1  0
 80 81  1  0
 80 82  1  0
 82 83  2  0
 82 84  1  0
 84 85  1  0
 85 86  1  0
 85 87  1  0
 87 88  2  0
 87 89  1  0
 89 90  1  0
 90 91  1  0
 90 92  1  0
 92 93  2  0
 92 94  1  0
 94 95  1  0
 95 96  1  0
 95 97  1  0
 97 98  2  0
 97 99  1  0
 99100  1  0
100101  1  0
101102  1  0
101103  2  0
100104  1  0
104105  1  0
105106  1  0
 45  5  1  0
 14  9  2  0
106 11  1  0
  1107  1  0
  1108  1  0
  1109  1  0
  4110  1  0
  5111  1  6
  6112  1  0
  6113  1  0
  8114  1  0
  8115  1  0
 10116  1  0
 12117  1  0
 14118  1  0
 15119  1  0
 15120  1  0
 17121  1  0
 17122  1  0
 18123  1  6
 19124  1  0
 22125  1  1
 23126  1  0
 23127  1  0
 23128  1  0
 24129  1  0
 27130  1  6
 28131  1  0
 28132  1  0
 28133  1  0
 29134  1  0
 32135  1  6
 33136  1  0
 33137  1  0
 33138  1  0
 34139  1  0
 37140  1  6
 38141  1  0
 38142  1  0
 38143  1  0
 39144  1  0
 42145  1  6
 43146  1  0
 43147  1  0
 43148  1  0
 44149  1  0
 49150  1  0
 50151  1  6
 51152  1  0
 51153  1  0
 51154  1  0
 54155  1  0
 55156  1  1
 56157  1  0
 56158  1  0
 56159  1  0
 59160  1  0
 60161  1  1
 61162  1  0
 61163  1  0
 61164  1  0
 64165  1  0
 65166  1  6
 66167  1  0
 66168  1  0
 66169  1  0
 69170  1  0
 70171  1  6
 71172  1  0
 71173  1  0
 71174  1  0
 74175  1  0
 75176  1  6
 76177  1  0
 76178  1  0
 76179  1  0
 79180  1  0
 80181  1  6
 81182  1  0
 81183  1  0
 81184  1  0
 84185  1  0
 85186  1  1
 86187  1  0
 86188  1  0
 86189  1  0
 89190  1  0
 90191  1  6
 91192  1  0
 91193  1  0
 91194  1  0
 94195  1  0
 95196  1  6
 96197  1  0
 96198  1  0
 96199  1  0
 99200  1  0
100201  1  1
102202  1  0
102203  1  0
104204  1  0
104205  1  0
106206  1  0
106207  1  0
M  END
