
     RDKit          3D

207209  0  0  0  0  0  0  0  0999 V2000
   -7.6946    7.4228   -1.5579 C   0  0  0  0  0  0  0  0  0  0  0  0
   -7.2073    6.2374   -0.7843 C   0  0  0  0  0  0  0  0  0  0  0  0
   -5.9703    6.0042   -0.7387 O   0  0  0  0  0  0  0  0  0  0  0  0
   -8.1341    5.3892   -0.0858 N   0  0  0  0  0  0  0  0  0  0  0  0
   -7.7009    4.2527    0.7371 C   0  0  2  0  0  0  0  0  0  0  0  0
   -7.1632    3.0971   -0.1386 C   0  0  0  0  0  0  0  0  0  0  0  0
   -6.9076    1.5245    0.7745 S   0  0  0  0  0  0  0  0  0  0  0  0
   -5.4532    2.0277    1.7656 C   0  0  0  0  0  0  0  0  0  0  0  0
   -4.2003    2.0753    0.9331 C   0  0  0  0  0  0  0  0  0  0  0  0
   -3.4697    3.2641    0.8051 C   0  0  0  0  0  0  0  0  0  0  0  0
   -2.2573    3.2955    0.1009 C   0  0  0  0  0  0  0  0  0  0  0  0
   -1.7673    2.1020   -0.4673 C   0  0  0  0  0  0  0  0  0  0  0  0
   -2.4859    0.8972   -0.3474 C   0  0  0  0  0  0  0  0  0  0  0  0
   -3.6908    0.8955    0.3746 C   0  0  0  0  0  0  0  0  0  0  0  0
   -1.9326   -0.3977   -0.8882 C   0  0  0  0  0  0  0  0  0  0  0  0
   -3.0902   -1.1006   -2.1231 S   0  0  0  0  0  0  0  0  0  0  0  0
   -3.8588   -2.3811   -1.0515 C   0  0  0  0  0  0  0  0  0  0  0  0
   -3.4571   -3.7943   -1.5094 C   0  0  2  0  0  0  0  0  0  0  0  0
   -4.3228   -4.8506   -0.9579 N   0  0  0  0  0  0  0  0  0  0  0  0
   -5.1833   -4.6815    0.1771 C   0  0  0  0  0  0  0  0  0  0  0  0
   -4.7284   -4.2054    1.2564 O   0  0  0  0  0  0  0  0  0  0  0  0
   -6.6134   -5.1327    0.1067 C   0  0  1  0  0  0  0  0  0  0  0  0
   -6.7982   -6.4810    0.8091 C   0  0  0  0  0  0  0  0  0  0  0  0
   -7.4790   -4.1218    0.7116 N   0  0  0  0  0  0  0  0  0  0  0  0
   -7.8421   -2.9045    0.0344 C   0  0  0  0  0  0  0  0  0  0  0  0
   -7.6603   -1.8072    0.6220 O   0  0  0  0  0  0  0  0  0  0  0  0
   -8.4705   -2.8905   -1.3421 C   0  0  1  0  0  0  0  0  0  0  0  0
   -7.4140   -2.6739   -2.4296 C   0  0  0  0  0  0  0  0  0  0  0  0
   -9.2413   -4.1093   -1.6070 N   0  0  0  0  0  0  0  0  0  0  0  0
  -10.5809   -4.3429   -1.1354 C   0  0  0  0  0  0  0  0  0  0  0  0
  -11.0280   -5.5237   -1.1485 O   0  0  0  0  0  0  0  0  0  0  0  0
  -11.4392   -3.2153   -0.5971 C   0  0  1  0  0  0  0  0  0  0  0  0
  -12.9249   -3.6039   -0.5216 C   0  0  0  0  0  0  0  0  0  0  0  0
  -10.9706   -2.8286    0.7359 N   0  0  0  0  0  0  0  0  0  0  0  0
  -10.8999   -1.4808    1.2392 C   0  0  0  0  0  0  0  0  0  0  0  0
  -10.2127   -1.2606    2.2728 O   0  0  0  0  0  0  0  0  0  0  0  0
  -11.6831   -0.3325    0.6313 C   0  0  1  0  0  0  0  0  0  0  0  0
  -12.8490    0.0292    1.5554 C   0  0  0  0  0  0  0  0  0  0  0  0
  -10.8166    0.8372    0.4330 N   0  0  0  0  0  0  0  0  0  0  0  0
  -11.2679    1.9914   -0.2973 C   0  0  0  0  0  0  0  0  0  0  0  0
  -12.1364    1.8518   -1.1981 O   0  0  0  0  0  0  0  0  0  0  0  0
  -10.6819    3.3606   -0.0194 C   0  0  1  0  0  0  0  0  0  0  0  0
  -11.7750    4.4286   -0.1448 C   0  0  0  0  0  0  0  0  0  0  0  0
  -10.1221    3.4134    1.3312 N   0  0  0  0  0  0  0  0  0  0  0  0
   -8.7914    3.8285    1.7132 C   0  0  0  0  0  0  0  0  0  0  0  0
   -8.5161    3.8587    2.9427 O   0  0  0  0  0  0  0  0  0  0  0  0
   -2.0196   -4.1155   -1.1849 C   0  0  0  0  0  0  0  0  0  0  0  0
   -1.1978   -4.3114   -2.1207 O   0  0  0  0  0  0  0  0  0  0  0  0
   -1.6074   -4.2854    0.1782 N   0  0  0  0  0  0  0  0  0  0  0  0
   -0.5986   -5.2925    0.5273 C   0  0  2  0  0  0  0  0  0  0  0  0
   -0.7720   -5.7181    1.9930 C   0  0  0  0  0  0  0  0  0  0  0  0
    0.8024   -4.7729    0.2957 C   0  0  0  0  0  0  0  0  0  0  0  0
    0.9820   -3.5386    0.1339 O   0  0  0  0  0  0  0  0  0  0  0  0
    1.9579   -5.6358    0.3261 N   0  0  0  0  0  0  0  0  0  0  0  0
    1.9315   -7.0760    0.0187 C   0  0  2  0  0  0  0  0  0  0  0  0
    2.6942   -7.8937    1.0751 C   0  0  0  0  0  0  0  0  0  0  0  0
    2.3586   -7.3391   -1.4106 C   0  0  0  0  0  0  0  0  0  0  0  0
    1.4481   -7.5582   -2.2533 O   0  0  0  0  0  0  0  0  0  0  0  0
    3.7318   -7.3832   -1.8628 N   0  0  0  0  0  0  0  0  0  0  0  0
    4.8788   -6.7099   -1.2476 C   0  0  2  0  0  0  0  0  0  0  0  0
    5.3057   -5.5225   -2.1204 C   0  0  0  0  0  0  0  0  0  0  0  0
    5.9877   -7.7112   -1.0385 C   0  0  0  0  0  0  0  0  0  0  0  0
    5.7382   -8.7972   -0.4430 O   0  0  0  0  0  0  0  0  0  0  0  0
    7.3258   -7.4416   -1.4707 N   0  0  0  0  0  0  0  0  0  0  0  0
    8.4578   -7.1793   -0.5632 C   0  0  2  0  0  0  0  0  0  0  0  0
    8.0397   -7.1488    0.9189 C   0  0  0  0  0  0  0  0  0  0  0  0
    9.1576   -5.9125   -0.9799 C   0  0  0  0  0  0  0  0  0  0  0  0
    9.6901   -5.8399   -2.1203 O   0  0  0  0  0  0  0  0  0  0  0  0
    9.2595   -4.7986   -0.0860 N   0  0  0  0  0  0  0  0  0  0  0  0
   10.5421   -4.1777    0.2717 C   0  0  2  0  0  0  0  0  0  0  0  0
   11.6428   -5.2401    0.4333 C   0  0  0  0  0  0  0  0  0  0  0  0
   10.3933   -3.4399    1.5856 C   0  0  0  0  0  0  0  0  0  0  0  0
    9.7678   -4.0089    2.5216 O   0  0  0  0  0  0  0  0  0  0  0  0
   10.9640   -2.1421    1.8363 N   0  0  0  0  0  0  0  0  0  0  0  0
   11.6426   -1.2871    0.8471 C   0  0  2  0  0  0  0  0  0  0  0  0
   13.0239   -1.8391    0.4921 C   0  0  0  0  0  0  0  0  0  0  0  0
   11.8086    0.1066    1.4119 C   0  0  0  0  0  0  0  0  0  0  0  0
   12.3981    0.2547    2.5183 O   0  0  0  0  0  0  0  0  0  0  0  0
   11.3187    1.2734    0.7346 N   0  0  0  0  0  0  0  0  0  0  0  0
   11.5006    1.4997   -0.7051 C   0  0  2  0  0  0  0  0  0  0  0  0
   12.8651    2.1638   -0.9379 C   0  0  0  0  0  0  0  0  0  0  0  0
   10.4058    2.3847   -1.2529 C   0  0  0  0  0  0  0  0  0  0  0  0
   10.4185    2.7187   -2.4657 O   0  0  0  0  0  0  0  0  0  0  0  0
    9.3769    2.8911   -0.3951 N   0  0  0  0  0  0  0  0  0  0  0  0
    8.9902    4.3075   -0.3890 C   0  0  2  0  0  0  0  0  0  0  0  0
   10.2316    5.1921   -0.2094 C   0  0  0  0  0  0  0  0  0  0  0  0
    8.0087    4.5938    0.7323 C   0  0  0  0  0  0  0  0  0  0  0  0
    8.0595    3.8871    1.7795 O   0  0  0  0  0  0  0  0  0  0  0  0
    6.9881    5.6009    0.6422 N   0  0  0  0  0  0  0  0  0  0  0  0
    7.0477    6.7827   -0.2228 C   0  0  2  0  0  0  0  0  0  0  0  0
    7.7232    7.9487    0.5084 C   0  0  0  0  0  0  0  0  0  0  0  0
    5.6518    7.1651   -0.6474 C   0  0  0  0  0  0  0  0  0  0  0  0
    5.3206    7.0473   -1.8604 O   0  0  0  0  0  0  0  0  0  0  0  0
    4.6941    7.6228    0.3151 N   0  0  0  0  0  0  0  0  0  0  0  0
    3.4522    8.3129   -0.0576 C   0  0  2  0  0  0  0  0  0  0  0  0
    3.7766    9.7379   -0.5323 C   0  0  0  0  0  0  0  0  0  0  0  0
    2.5172    8.3715    1.1289 C   0  0  0  0  0  0  0  0  0  0  0  0
    2.9288    8.9183    2.1878 O   0  0  0  0  0  0  0  0  0  0  0  0
    1.1821    7.8185    1.1296 N   0  0  0  0  0  0  0  0  0  0  0  0
    0.4354    7.2479   -0.0034 C   0  0  1  0  0  0  0  0  0  0  0  0
    0.3863    8.2109   -1.1685 C   0  0  0  0  0  0  0  0  0  0  0  0
   -0.1390    9.5249   -0.9794 N   0  0  0  0  0  0  0  0  0  0  0  0
    0.8060    7.8733   -2.3050 O   0  0  0  0  0  0  0  0  0  0  0  0
    0.9491    5.8309   -0.3399 C   0  0  0  0  0  0  0  0  0  0  0  0
   -0.2879    4.8064   -1.2401 S   0  0  0  0  0  0  0  0  0  0  0  0
   -1.4451    4.5683    0.1656 C   0  0  0  0  0  0  0  0  0  0  0  0
   -7.3626    7.3417   -2.6144 H   0  0  0  0  0  0  0  0  0  0  0  0
   -7.2783    8.3499   -1.1122 H   0  0  0  0  0  0  0  0  0  0  0  0
   -8.8023    7.4827   -1.5415 H   0  0  0  0  0  0  0  0  0  0  0  0
   -9.1298    5.6954   -0.0587 H   0  0  0  0  0  0  0  0  0  0  0  0
   -6.8467    4.6189    1.3526 H   0  0  0  0  0  0  0  0  0  0  0  0
   -7.8626    2.8772   -0.9678 H   0  0  0  0  0  0  0  0  0  0  0  0
   -6.2021    3.3997   -0.6114 H   0  0  0  0  0  0  0  0  0  0  0  0
   -5.6392    2.9917    2.2684 H   0  0  0  0  0  0  0  0  0  0  0  0
   -5.3070    1.2783    2.5695 H   0  0  0  0  0  0  0  0  0  0  0  0
   -3.8337    4.1602    1.2841 H   0  0  0  0  0  0  0  0  0  0  0  0
   -0.8020    2.0875   -0.9638 H   0  0  0  0  0  0  0  0  0  0  0  0
   -4.2362   -0.0315    0.5039 H   0  0  0  0  0  0  0  0  0  0  0  0
   -1.7317   -1.0945   -0.0446 H   0  0  0  0  0  0  0  0  0  0  0  0
   -0.9676   -0.2183   -1.4130 H   0  0  0  0  0  0  0  0  0  0  0  0
   -4.9559   -2.2680   -1.1551 H   0  0  0  0  0  0  0  0  0  0  0  0
   -3.6304   -2.2312    0.0206 H   0  0  0  0  0  0  0  0  0  0  0  0
   -3.5784   -3.8299   -2.6176 H   0  0  0  0  0  0  0  0  0  0  0  0
   -4.3853   -5.7575   -1.4826 H   0  0  0  0  0  0  0  0  0  0  0  0
   -6.8748   -5.2721   -0.9609 H   0  0  0  0  0  0  0  0  0  0  0  0
   -6.1433   -7.2505    0.3450 H   0  0  0  0  0  0  0  0  0  0  0  0
   -6.5555   -6.4031    1.8933 H   0  0  0  0  0  0  0  0  0  0  0  0
   -7.8554   -6.8140    0.7128 H   0  0  0  0  0  0  0  0  0  0  0  0
   -7.5006   -4.0869    1.7574 H   0  0  0  0  0  0  0  0  0  0  0  0
   -9.1473   -2.0066   -1.3988 H   0  0  0  0  0  0  0  0  0  0  0  0
   -7.9024   -2.6816   -3.4295 H   0  0  0  0  0  0  0  0  0  0  0  0
   -6.6436   -3.4721   -2.4046 H   0  0  0  0  0  0  0  0  0  0  0  0
   -6.9276   -1.6840   -2.2928 H   0  0  0  0  0  0  0  0  0  0  0  0
   -8.7614   -4.9296   -2.0552 H   0  0  0  0  0  0  0  0  0  0  0  0
  -11.3494   -2.3815   -1.3200 H   0  0  0  0  0  0  0  0  0  0  0  0
  -13.0891   -4.3963    0.2406 H   0  0  0  0  0  0  0  0  0  0  0  0
  -13.5348   -2.7181   -0.2552 H   0  0  0  0  0  0  0  0  0  0  0  0
  -13.2664   -3.9781   -1.5091 H   0  0  0  0  0  0  0  0  0  0  0  0
  -10.6128   -3.5839    1.3647 H   0  0  0  0  0  0  0  0  0  0  0  0
  -12.1149   -0.6286   -0.3468 H   0  0  0  0  0  0  0  0  0  0  0  0
  -13.4729   -0.8705    1.7664 H   0  0  0  0  0  0  0  0  0  0  0  0
  -12.4622    0.4416    2.5133 H   0  0  0  0  0  0  0  0  0  0  0  0
  -13.4955    0.7983    1.0806 H   0  0  0  0  0  0  0  0  0  0  0  0
   -9.8737    0.8697    0.8870 H   0  0  0  0  0  0  0  0  0  0  0  0
   -9.9170    3.5696   -0.7886 H   0  0  0  0  0  0  0  0  0  0  0  0
  -12.1013    4.5359   -1.2031 H   0  0  0  0  0  0  0  0  0  0  0  0
  -12.6526    4.1545    0.4839 H   0  0  0  0  0  0  0  0  0  0  0  0
  -11.3990    5.4114    0.2011 H   0  0  0  0  0  0  0  0  0  0  0  0
  -10.7623    3.1509    2.1182 H   0  0  0  0  0  0  0  0  0  0  0  0
   -2.2263   -3.9047    0.9231 H   0  0  0  0  0  0  0  0  0  0  0  0
   -0.7896   -6.1767   -0.1098 H   0  0  0  0  0  0  0  0  0  0  0  0
   -0.6075   -4.8556    2.6784 H   0  0  0  0  0  0  0  0  0  0  0  0
   -1.7970   -6.1073    2.1543 H   0  0  0  0  0  0  0  0  0  0  0  0
   -0.0514   -6.5202    2.2504 H   0  0  0  0  0  0  0  0  0  0  0  0
    2.8841   -5.1655    0.4073 H   0  0  0  0  0  0  0  0  0  0  0  0
    0.8935   -7.4535    0.1062 H   0  0  0  0  0  0  0  0  0  0  0  0
    3.7479   -7.5891    1.1908 H   0  0  0  0  0  0  0  0  0  0  0  0
    2.6564   -8.9709    0.8094 H   0  0  0  0  0  0  0  0  0  0  0  0
    2.2016   -7.7673    2.0623 H   0  0  0  0  0  0  0  0  0  0  0  0
    3.8881   -7.7938   -2.8119 H   0  0  0  0  0  0  0  0  0  0  0  0
    4.6244   -6.2960   -0.2628 H   0  0  0  0  0  0  0  0  0  0  0  0
    5.5621   -5.8710   -3.1432 H   0  0  0  0  0  0  0  0  0  0  0  0
    4.4803   -4.7860   -2.1804 H   0  0  0  0  0  0  0  0  0  0  0  0
    6.1890   -5.0212   -1.6758 H   0  0  0  0  0  0  0  0  0  0  0  0
    7.5224   -7.5236   -2.4965 H   0  0  0  0  0  0  0  0  0  0  0  0
    9.1851   -8.0148   -0.6768 H   0  0  0  0  0  0  0  0  0  0  0  0
    8.9175   -6.9204    1.5618 H   0  0  0  0  0  0  0  0  0  0  0  0
    7.6489   -8.1365    1.2318 H   0  0  0  0  0  0  0  0  0  0  0  0
    7.2617   -6.3717    1.0896 H   0  0  0  0  0  0  0  0  0  0  0  0
    8.3719   -4.2867    0.1384 H   0  0  0  0  0  0  0  0  0  0  0  0
   10.8265   -3.4878   -0.5438 H   0  0  0  0  0  0  0  0  0  0  0  0
   12.5768   -4.7876    0.8197 H   0  0  0  0  0  0  0  0  0  0  0  0
   11.8804   -5.7073   -0.5476 H   0  0  0  0  0  0  0  0  0  0  0  0
   11.3197   -6.0318    1.1413 H   0  0  0  0  0  0  0  0  0  0  0  0
   10.7887   -1.7566    2.7914 H   0  0  0  0  0  0  0  0  0  0  0  0
   11.0128   -1.2399   -0.0660 H   0  0  0  0  0  0  0  0  0  0  0  0
   13.5764   -2.1355    1.4137 H   0  0  0  0  0  0  0  0  0  0  0  0
   13.6215   -1.0787   -0.0539 H   0  0  0  0  0  0  0  0  0  0  0  0
   12.9451   -2.7199   -0.1760 H   0  0  0  0  0  0  0  0  0  0  0  0
   11.2004    2.1230    1.3280 H   0  0  0  0  0  0  0  0  0  0  0  0
   11.4812    0.5404   -1.2673 H   0  0  0  0  0  0  0  0  0  0  0  0
   13.6719    1.5347   -0.5103 H   0  0  0  0  0  0  0  0  0  0  0  0
   12.8942    3.1614   -0.4501 H   0  0  0  0  0  0  0  0  0  0  0  0
   13.0587    2.2876   -2.0259 H   0  0  0  0  0  0  0  0  0  0  0  0
    8.8210    2.1874    0.1484 H   0  0  0  0  0  0  0  0  0  0  0  0
    8.5208    4.5325   -1.3715 H   0  0  0  0  0  0  0  0  0  0  0  0
   10.6617    5.0471    0.8051 H   0  0  0  0  0  0  0  0  0  0  0  0
   11.0057    4.9563   -0.9634 H   0  0  0  0  0  0  0  0  0  0  0  0
    9.9703    6.2577   -0.3495 H   0  0  0  0  0  0  0  0  0  0  0  0
    6.2844    5.6070    1.4121 H   0  0  0  0  0  0  0  0  0  0  0  0
    7.6413    6.5673   -1.1342 H   0  0  0  0  0  0  0  0  0  0  0  0
    7.1204    8.2841    1.3750 H   0  0  0  0  0  0  0  0  0  0  0  0
    7.8549    8.8050   -0.1900 H   0  0  0  0  0  0  0  0  0  0  0  0
    8.7161    7.6452    0.8925 H   0  0  0  0  0  0  0  0  0  0  0  0
    4.9131    7.4897    1.3291 H   0  0  0  0  0  0  0  0  0  0  0  0
    2.9886    7.7736   -0.8987 H   0  0  0  0  0  0  0  0  0  0  0  0
    4.3332   10.2831    0.2591 H   0  0  0  0  0  0  0  0  0  0  0  0
    2.8416   10.2901   -0.7614 H   0  0  0  0  0  0  0  0  0  0  0  0
    4.3934    9.7122   -1.4503 H   0  0  0  0  0  0  0  0  0  0  0  0
    0.6631    7.8817    2.0374 H   0  0  0  0  0  0  0  0  0  0  0  0
   -0.6156    7.1476    0.3339 H   0  0  0  0  0  0  0  0  0  0  0  0
   -0.1895   10.2023   -1.7705 H   0  0  0  0  0  0  0  0  0  0  0  0
   -0.4483    9.8401   -0.0321 H   0  0  0  0  0  0  0  0  0  0  0  0
    1.8634    5.8778   -0.9625 H   0  0  0  0  0  0  0  0  0  0  0  0
    1.2383    5.3061    0.5959 H   0  0  0  0  0  0  0  0  0  0  0  0
   -2.1357    5.4324    0.1506 H   0  0  0  0  0  0  0  0  0  0  0  0
   -0.9000    4.5676    1.1257 H   0  0  0  0  0  0  0  0  0  0  0  0
  1  2  1  0
  2  3  2  0
  2  4  1  0
  4  5  1  0
  5  6  1  0
  6  7  1  0
  7  8  1  0
  8  9  1  0
  9 10  1  0
 10 11  2  0
 11 12  1  0
 12 13  2  0
 13 14  1  0
 13 15  1  0
 15 16  1  0
 16 17  1  0
 17 18  1  0
 18 19  1  0
 19 20  1  0
 20 21  2  0
 20 22  1  0
 22 23  1  0
 22 24  1  0
 24 25  1  0
 25 26  2  0
 25 27  1  0
 27 28  1  0
 27 29  1  0
 29 30  1  0
 30 31  2  0
 30 32  1  0
 32 33  1  0
 32 34  1  0
 34 35  1  0
 35 36  2  0
 35 37  1  0
 37 38  1  0
 37 39  1  0
 39 40  1  0
 40 41  2  0
 40 42  1  0
 42 43  1  0
 42 44  1  0
 44 45  1  0
 45 46  2  0
 18 47  1  0
 47 48  2  0
 47 49  1  0
 49 50  1  0
 50 51  1  0
 50 52  1  0
 52 53  2  0
 52 54  1  0
 54 55  1  0
 55 56  1  0
 55 57  1  0
 57 58  2  0
 57 59  1  0
 59 60  1  0
 60 61  1  0
 60 62  1  0
 62 63  2  0
 62 64  1  0
 64 65  1  0
 65 66  1  0
 65 67  1  0
 67 68  2  0
 67 69  1  0
 69 70  1  0
 70 71  1  0
 70 72  1  0
 72 73  2  0
 72 74  1  0
 74 75  1  0
 75 76  1  0
 75 77  1  0
 77 78  2  0
 77 79  1  0
 79 80  1  0
 80 81  1  0
 80 82  1  0
 82 83  2  0
 82 84  1  0
 84 85  1  0
 85 86  1  0
 85 87  1  0
 87 88  2  0
 87 89  1  0
 89 90  1  0
 90 91  1  0
 90 92  1  0
 92 93  2  0
 92 94  1  0
 94 95  1  0
 95 96  1  0
 95 97  1  0
 97 98  2  0
 97 99  1  0
 99100  1  0
100101  1  0
101102  1  0
101103  2  0
100104  1  0
104105  1  0
105106  1  0
 45  5  1  0
 14  9  2  0
106 11  1  0
  1107  1  0
  1108  1  0
  1109  1  0
  4110  1  0
  5111  1  1
  6112  1  0
  6113  1  0
  8114  1  0
  8115  1  0
 10116  1  0
 12117  1  0
 14118  1  0
 15119  1  0
 15120  1  0
 17121  1  0
 17122  1  0
 18123  1  6
 19124  1  0
 22125  1  6
 23126  1  0
 23127  1  0
 23128  1  0
 24129  1  0
 27130  1  1
 28131  1  0
 28132  1  0
 28133  1  0
 29134  1  0
 32135  1  6
 33136  1  0
 33137  1  0
 33138  1  0
 34139  1  0
 37140  1  6
 38141  1  0
 38142  1  0
 38143  1  0
 39144  1  0
 42145  1  6
 43146  1  0
 43147  1  0
 43148  1  0
 44149  1  0
 49150  1  0
 50151  1  6
 51152  1  0
 51153  1  0
 51154  1  0
 54155  1  0
 55156  1  6
 56157  1  0
 56158  1  0
 56159  1  0
 59160  1  0
 60161  1  1
 61162  1  0
 61163  1  0
 61164  1  0
 64165  1  0
 65166  1  1
 66167  1  0
 66168  1  0
 66169  1  0
 69170  1  0
 70171  1  6
 71172  1  0
 71173  1  0
 71174  1  0
 74175  1  0
 75176  1  6
 76177  1  0
 76178  1  0
 76179  1  0
 79180  1  0
 80181  1  6
 81182  1  0
 81183  1  0
 81184  1  0
 84185  1  0
 85186  1  6
 86187  1  0
 86188  1  0
 86189  1  0
 89190  1  0
 90191  1  6
 91192  1  0
 91193  1  0
 91194  1  0
 94195  1  0
 95196  1  6
 96197  1  0
 96198  1  0
 96199  1  0
 99200  1  0
100201  1  1
102202  1  0
102203  1  0
104204  1  0
104205  1  0
106206  1  0
106207  1  0
M  END
