
     RDKit          3D

197199  0  0  0  0  0  0  0  0999 V2000
   -9.7277    8.6712   -1.2431 C   0  0  0  0  0  0  0  0  0  0  0  0
   -9.2057    7.4114   -0.6433 C   0  0  0  0  0  0  0  0  0  0  0  0
   -9.0846    7.3185    0.6108 O   0  0  0  0  0  0  0  0  0  0  0  0
   -8.8321    6.3128   -1.4935 N   0  0  0  0  0  0  0  0  0  0  0  0
   -8.1178    5.1406   -0.9718 C   0  0  2  0  0  0  0  0  0  0  0  0
   -6.6515    5.5109   -0.6738 C   0  0  0  0  0  0  0  0  0  0  0  0
   -5.8643    4.2807    0.4307 S   0  0  0  0  0  0  0  0  0  0  0  0
   -5.0482    3.2541   -0.8461 C   0  0  0  0  0  0  0  0  0  0  0  0
   -3.8087    2.6555   -0.2405 C   0  0  0  0  0  0  0  0  0  0  0  0
   -2.7135    3.4819    0.0546 C   0  0  0  0  0  0  0  0  0  0  0  0
   -1.6057    2.9702    0.7514 C   0  0  0  0  0  0  0  0  0  0  0  0
   -1.5929    1.6235    1.1362 C   0  0  0  0  0  0  0  0  0  0  0  0
   -2.6732    0.7818    0.8269 C   0  0  0  0  0  0  0  0  0  0  0  0
   -3.7747    1.3017    0.1306 C   0  0  0  0  0  0  0  0  0  0  0  0
   -2.7353   -0.6135    1.4055 C   0  0  0  0  0  0  0  0  0  0  0  0
   -1.2309   -1.5827    0.9996 S   0  0  0  0  0  0  0  0  0  0  0  0
   -1.9391   -2.6329   -0.3244 C   0  0  0  0  0  0  0  0  0  0  0  0
   -2.3803   -4.0409    0.1452 C   0  0  2  0  0  0  0  0  0  0  0  0
   -3.5049   -3.9655    1.0822 N   0  0  0  0  0  0  0  0  0  0  0  0
   -4.4828   -5.0153    1.2191 C   0  0  0  0  0  0  0  0  0  0  0  0
   -5.0757   -5.1571    2.3239 O   0  0  0  0  0  0  0  0  0  0  0  0
   -4.8294   -5.9289    0.0599 C   0  0  1  0  0  0  0  0  0  0  0  0
   -5.8279   -7.0400    0.4078 C   0  0  0  0  0  0  0  0  0  0  0  0
   -5.2745   -5.1630   -1.1115 N   0  0  0  0  0  0  0  0  0  0  0  0
   -6.3368   -4.1903   -1.1774 C   0  0  0  0  0  0  0  0  0  0  0  0
   -6.5300   -3.5906   -2.2710 O   0  0  0  0  0  0  0  0  0  0  0  0
   -7.2560   -3.8612   -0.0190 C   0  0  1  0  0  0  0  0  0  0  0  0
   -7.1099   -2.3782    0.3520 C   0  0  0  0  0  0  0  0  0  0  0  0
   -8.6352   -4.1736   -0.3931 N   0  0  0  0  0  0  0  0  0  0  0  0
   -9.7289   -3.8668    0.4748 C   0  0  0  0  0  0  0  0  0  0  0  0
   -9.9406   -4.5851    1.4901 O   0  0  0  0  0  0  0  0  0  0  0  0
  -10.6672   -2.7428    0.1203 C   0  0  1  0  0  0  0  0  0  0  0  0
  -11.6842   -3.2081   -0.9225 C   0  0  0  0  0  0  0  0  0  0  0  0
  -11.3685   -2.2587    1.3115 N   0  0  0  0  0  0  0  0  0  0  0  0
  -11.3901   -0.8810    1.7341 C   0  0  0  0  0  0  0  0  0  0  0  0
  -11.4664   -0.6370    2.9700 O   0  0  0  0  0  0  0  0  0  0  0  0
  -11.5223    0.2548    0.7439 C   0  0  1  0  0  0  0  0  0  0  0  0
  -13.0030    0.5567    0.5093 C   0  0  0  0  0  0  0  0  0  0  0  0
  -10.8489    1.4541    1.2455 N   0  0  0  0  0  0  0  0  0  0  0  0
   -9.8856    2.2124    0.4954 C   0  0  0  0  0  0  0  0  0  0  0  0
   -8.8925    2.6920    1.1066 O   0  0  0  0  0  0  0  0  0  0  0  0
  -10.1023    2.5530   -0.9640 C   0  0  1  0  0  0  0  0  0  0  0  0
  -11.0710    3.7269   -1.1465 C   0  0  0  0  0  0  0  0  0  0  0  0
   -8.8217    2.7482   -1.6627 N   0  0  0  0  0  0  0  0  0  0  0  0
   -8.1936    4.0041   -1.9664 C   0  0  0  0  0  0  0  0  0  0  0  0
   -7.6350    4.1432   -3.0879 O   0  0  0  0  0  0  0  0  0  0  0  0
   -1.2669   -4.8290    0.7830 C   0  0  0  0  0  0  0  0  0  0  0  0
   -0.8236   -4.4908    1.9170 O   0  0  0  0  0  0  0  0  0  0  0  0
   -0.8001   -6.0416    0.1846 N   0  0  0  0  0  0  0  0  0  0  0  0
   -0.2847   -6.0962   -1.1836 C   0  0  2  0  0  0  0  0  0  0  0  0
   -0.9450   -7.2712   -1.9101 C   0  0  0  0  0  0  0  0  0  0  0  0
    1.2226   -6.2515   -1.1867 C   0  0  0  0  0  0  0  0  0  0  0  0
    1.8308   -6.3325   -2.2883 O   0  0  0  0  0  0  0  0  0  0  0  0
    1.9631   -6.3510    0.0396 N   0  0  0  0  0  0  0  0  0  0  0  0
    3.2150   -7.1119    0.1324 C   0  0  2  0  0  0  0  0  0  0  0  0
    2.9242   -8.6098    0.0058 C   0  0  0  0  0  0  0  0  0  0  0  0
    3.8967   -6.8253    1.4565 C   0  0  0  0  0  0  0  0  0  0  0  0
    3.3055   -7.1782    2.5133 O   0  0  0  0  0  0  0  0  0  0  0  0
    5.1714   -6.1565    1.5826 N   0  0  0  0  0  0  0  0  0  0  0  0
    5.9888   -5.5261    0.5298 C   0  0  2  0  0  0  0  0  0  0  0  0
    5.1838   -4.5331   -0.3270 C   0  0  0  0  0  0  0  0  0  0  0  0
    6.7212   -6.5596   -0.2936 C   0  0  0  0  0  0  0  0  0  0  0  0
    6.1497   -7.6478   -0.5655 O   0  0  0  0  0  0  0  0  0  0  0  0
    8.0820   -6.3728   -0.7340 N   0  0  0  0  0  0  0  0  0  0  0  0
    8.7909   -5.0932   -0.8079 C   0  0  2  0  0  0  0  0  0  0  0  0
    9.2851   -4.8791   -2.2428 C   0  0  0  0  0  0  0  0  0  0  0  0
    9.9415   -5.0975    0.1678 C   0  0  0  0  0  0  0  0  0  0  0  0
   10.5575   -6.1774    0.3897 O   0  0  0  0  0  0  0  0  0  0  0  0
   10.3540   -3.9124    0.8713 N   0  0  0  0  0  0  0  0  0  0  0  0
   10.3978   -2.5885    0.2526 C   0  0  2  0  0  0  0  0  0  0  0  0
   11.6853   -2.4801   -0.5815 C   0  0  0  0  0  0  0  0  0  0  0  0
   10.2938   -1.5281    1.3283 C   0  0  0  0  0  0  0  0  0  0  0  0
    9.3405   -1.5858    2.1495 O   0  0  0  0  0  0  0  0  0  0  0  0
   11.2726   -0.4881    1.4730 N   0  0  0  0  0  0  0  0  0  0  0  0
   11.3439    0.6405    0.5382 C   0  0  2  0  0  0  0  0  0  0  0  0
   12.8092    0.8942    0.1636 C   0  0  0  0  0  0  0  0  0  0  0  0
   10.7501    1.8908    1.1413 C   0  0  0  0  0  0  0  0  0  0  0  0
   10.3901    1.8910    2.3516 O   0  0  0  0  0  0  0  0  0  0  0  0
   10.6744    3.1197    0.4014 N   0  0  0  0  0  0  0  0  0  0  0  0
   10.2112    3.2114   -0.9907 C   0  0  2  0  0  0  0  0  0  0  0  0
   11.1594    4.1285   -1.7703 C   0  0  0  0  0  0  0  0  0  0  0  0
    8.8074    3.7599   -1.0439 C   0  0  0  0  0  0  0  0  0  0  0  0
    8.2296    3.8773   -2.1566 O   0  0  0  0  0  0  0  0  0  0  0  0
    8.1470    4.2079    0.1506 N   0  0  0  0  0  0  0  0  0  0  0  0
    7.5989    5.5628    0.2528 C   0  0  2  0  0  0  0  0  0  0  0  0
    8.6737    6.5908   -0.1187 C   0  0  0  0  0  0  0  0  0  0  0  0
    7.1197    5.8535    1.6624 C   0  0  0  0  0  0  0  0  0  0  0  0
    7.7763    5.3790    2.6303 O   0  0  0  0  0  0  0  0  0  0  0  0
    6.0153    6.7372    1.9461 N   0  0  0  0  0  0  0  0  0  0  0  0
    4.9558    7.1221    1.0016 C   0  0  2  0  0  0  0  0  0  0  0  0
    5.4582    8.1956    0.0250 C   0  0  0  0  0  0  0  0  0  0  0  0
    3.7720    7.6857    1.7675 C   0  0  0  0  0  0  0  0  0  0  0  0
    3.9699    8.6715    2.5214 O   0  0  0  0  0  0  0  0  0  0  0  0
    2.4355    7.1456    1.6975 N   0  0  0  0  0  0  0  0  0  0  0  0
    1.8611    6.2732    0.6592 C   0  0  1  0  0  0  0  0  0  0  0  0
    2.3119    6.6686   -0.7277 C   0  0  0  0  0  0  0  0  0  0  0  0
    1.9983    7.9693   -1.2265 N   0  0  0  0  0  0  0  0  0  0  0  0
    2.9328    5.8572   -1.4678 O   0  0  0  0  0  0  0  0  0  0  0  0
    2.0947    4.7880    1.0107 C   0  0  0  0  0  0  0  0  0  0  0  0
    0.9684    3.6791    0.0633 S   0  0  0  0  0  0  0  0  0  0  0  0
   -0.4869    3.8766    1.1698 C   0  0  0  0  0  0  0  0  0  0  0  0
  -10.6511    8.4554   -1.8219 H   0  0  0  0  0  0  0  0  0  0  0  0
   -9.9650    9.4137   -0.4494 H   0  0  0  0  0  0  0  0  0  0  0  0
   -8.9651    9.1123   -1.9190 H   0  0  0  0  0  0  0  0  0  0  0  0
   -9.1503    6.3302   -2.4857 H   0  0  0  0  0  0  0  0  0  0  0  0
   -8.5892    4.8358   -0.0211 H   0  0  0  0  0  0  0  0  0  0  0  0
   -6.0707    5.6619   -1.6075 H   0  0  0  0  0  0  0  0  0  0  0  0
   -6.6184    6.4707   -0.1194 H   0  0  0  0  0  0  0  0  0  0  0  0
   -4.7698    3.8409   -1.7435 H   0  0  0  0  0  0  0  0  0  0  0  0
   -5.7583    2.4565   -1.1586 H   0  0  0  0  0  0  0  0  0  0  0  0
   -2.7515    4.5351   -0.2067 H   0  0  0  0  0  0  0  0  0  0  0  0
   -0.7727    1.2501    1.7312 H   0  0  0  0  0  0  0  0  0  0  0  0
   -4.6348    0.6745   -0.0665 H   0  0  0  0  0  0  0  0  0  0  0  0
   -2.7919   -0.5248    2.5101 H   0  0  0  0  0  0  0  0  0  0  0  0
   -3.6552   -1.1400    1.0740 H   0  0  0  0  0  0  0  0  0  0  0  0
   -2.7885   -2.1198   -0.8257 H   0  0  0  0  0  0  0  0  0  0  0  0
   -1.1508   -2.7566   -1.0941 H   0  0  0  0  0  0  0  0  0  0  0  0
   -2.6994   -4.5678   -0.7755 H   0  0  0  0  0  0  0  0  0  0  0  0
   -3.4145   -3.3217    1.8967 H   0  0  0  0  0  0  0  0  0  0  0  0
   -3.8854   -6.4571   -0.2171 H   0  0  0  0  0  0  0  0  0  0  0  0
   -5.4088   -7.6862    1.2116 H   0  0  0  0  0  0  0  0  0  0  0  0
   -6.8010   -6.6403    0.7472 H   0  0  0  0  0  0  0  0  0  0  0  0
   -6.0136   -7.6725   -0.4910 H   0  0  0  0  0  0  0  0  0  0  0  0
   -4.7428   -5.3220   -2.0004 H   0  0  0  0  0  0  0  0  0  0  0  0
   -7.0009   -4.4489    0.8767 H   0  0  0  0  0  0  0  0  0  0  0  0
   -7.7260   -2.1423    1.2455 H   0  0  0  0  0  0  0  0  0  0  0  0
   -6.0466   -2.1552    0.6016 H   0  0  0  0  0  0  0  0  0  0  0  0
   -7.4309   -1.7270   -0.4849 H   0  0  0  0  0  0  0  0  0  0  0  0
   -8.7928   -4.9890   -1.0356 H   0  0  0  0  0  0  0  0  0  0  0  0
  -10.0527   -1.9396   -0.3281 H   0  0  0  0  0  0  0  0  0  0  0  0
  -11.1617   -3.6180   -1.8173 H   0  0  0  0  0  0  0  0  0  0  0  0
  -12.3140   -2.3493   -1.2421 H   0  0  0  0  0  0  0  0  0  0  0  0
  -12.3460   -3.9962   -0.4955 H   0  0  0  0  0  0  0  0  0  0  0  0
  -11.8399   -2.9549    1.9326 H   0  0  0  0  0  0  0  0  0  0  0  0
  -11.0855   -0.0476   -0.2253 H   0  0  0  0  0  0  0  0  0  0  0  0
  -13.1158    1.3699   -0.2372 H   0  0  0  0  0  0  0  0  0  0  0  0
  -13.4865    0.8703    1.4584 H   0  0  0  0  0  0  0  0  0  0  0  0
  -13.5217   -0.3447    0.1134 H   0  0  0  0  0  0  0  0  0  0  0  0
  -11.0042    1.7317    2.2425 H   0  0  0  0  0  0  0  0  0  0  0  0
  -10.5975    1.6899   -1.4503 H   0  0  0  0  0  0  0  0  0  0  0  0
  -12.0958    3.4229   -0.8378 H   0  0  0  0  0  0  0  0  0  0  0  0
  -10.7908    4.6029   -0.5308 H   0  0  0  0  0  0  0  0  0  0  0  0
  -11.1146    4.0280   -2.2163 H   0  0  0  0  0  0  0  0  0  0  0  0
   -8.4625    1.9160   -2.1898 H   0  0  0  0  0  0  0  0  0  0  0  0
   -0.6224   -6.8554    0.8169 H   0  0  0  0  0  0  0  0  0  0  0  0
   -0.5460   -5.1604   -1.7306 H   0  0  0  0  0  0  0  0  0  0  0  0
   -0.5793   -7.3362   -2.9565 H   0  0  0  0  0  0  0  0  0  0  0  0
   -2.0431   -7.1255   -1.9392 H   0  0  0  0  0  0  0  0  0  0  0  0
   -0.7194   -8.2248   -1.3874 H   0  0  0  0  0  0  0  0  0  0  0  0
    1.5987   -5.8685    0.8911 H   0  0  0  0  0  0  0  0  0  0  0  0
    3.8626   -6.8298   -0.7099 H   0  0  0  0  0  0  0  0  0  0  0  0
    3.8655   -9.1931    0.1068 H   0  0  0  0  0  0  0  0  0  0  0  0
    2.4898   -8.8259   -0.9972 H   0  0  0  0  0  0  0  0  0  0  0  0
    2.2040   -8.9407    0.7819 H   0  0  0  0  0  0  0  0  0  0  0  0
    5.5233   -6.0449    2.5588 H   0  0  0  0  0  0  0  0  0  0  0  0
    6.7542   -4.9261    1.0735 H   0  0  0  0  0  0  0  0  0  0  0  0
    5.8056   -3.6443   -0.5692 H   0  0  0  0  0  0  0  0  0  0  0  0
    4.2805   -4.1764    0.2199 H   0  0  0  0  0  0  0  0  0  0  0  0
    4.8669   -4.9770   -1.2937 H   0  0  0  0  0  0  0  0  0  0  0  0
    8.5771   -7.2214   -1.0914 H   0  0  0  0  0  0  0  0  0  0  0  0
    8.1050   -4.2571   -0.5675 H   0  0  0  0  0  0  0  0  0  0  0  0
    8.4406   -5.0012   -2.9547 H   0  0  0  0  0  0  0  0  0  0  0  0
   10.0744   -5.6149   -2.5015 H   0  0  0  0  0  0  0  0  0  0  0  0
    9.6899   -3.8528   -2.3721 H   0  0  0  0  0  0  0  0  0  0  0  0
   10.9487   -4.0615    1.7186 H   0  0  0  0  0  0  0  0  0  0  0  0
    9.5298   -2.4549   -0.4213 H   0  0  0  0  0  0  0  0  0  0  0  0
   11.6549   -1.5855   -1.2310 H   0  0  0  0  0  0  0  0  0  0  0  0
   11.7873   -3.3647   -1.2435 H   0  0  0  0  0  0  0  0  0  0  0  0
   12.5757   -2.4417    0.0790 H   0  0  0  0  0  0  0  0  0  0  0  0
   11.7334   -0.3881    2.4081 H   0  0  0  0  0  0  0  0  0  0  0  0
   10.7791    0.3813   -0.3826 H   0  0  0  0  0  0  0  0  0  0  0  0
   13.3874    1.2266    1.0494 H   0  0  0  0  0  0  0  0  0  0  0  0
   13.2756   -0.0309   -0.2359 H   0  0  0  0  0  0  0  0  0  0  0  0
   12.8755    1.6740   -0.6243 H   0  0  0  0  0  0  0  0  0  0  0  0
   10.7366    4.0053    0.9488 H   0  0  0  0  0  0  0  0  0  0  0  0
   10.2188    2.2110   -1.4734 H   0  0  0  0  0  0  0  0  0  0  0  0
   12.1908    3.7207   -1.7476 H   0  0  0  0  0  0  0  0  0  0  0  0
   10.8404    4.2062   -2.8328 H   0  0  0  0  0  0  0  0  0  0  0  0
   11.1702    5.1460   -1.3271 H   0  0  0  0  0  0  0  0  0  0  0  0
    8.1409    3.5622    0.9733 H   0  0  0  0  0  0  0  0  0  0  0  0
    6.7541    5.6327   -0.4628 H   0  0  0  0  0  0  0  0  0  0  0  0
    9.6023    6.4128    0.4680 H   0  0  0  0  0  0  0  0  0  0  0  0
    8.3321    7.6278    0.0887 H   0  0  0  0  0  0  0  0  0  0  0  0
    8.9201    6.5215   -1.1994 H   0  0  0  0  0  0  0  0  0  0  0  0
    5.8907    6.9786    2.9561 H   0  0  0  0  0  0  0  0  0  0  0  0
    4.6544    6.2257    0.4337 H   0  0  0  0  0  0  0  0  0  0  0  0
    4.6158    8.6112   -0.5627 H   0  0  0  0  0  0  0  0  0  0  0  0
    6.1694    7.7751   -0.7088 H   0  0  0  0  0  0  0  0  0  0  0  0
    5.9547    9.0259    0.5717 H   0  0  0  0  0  0  0  0  0  0  0  0
    1.7668    7.4827    2.4264 H   0  0  0  0  0  0  0  0  0  0  0  0
    0.7643    6.4392    0.6802 H   0  0  0  0  0  0  0  0  0  0  0  0
    2.3065    8.2568   -2.1844 H   0  0  0  0  0  0  0  0  0  0  0  0
    1.4296    8.6330   -0.6549 H   0  0  0  0  0  0  0  0  0  0  0  0
    3.1371    4.4951    0.7912 H   0  0  0  0  0  0  0  0  0  0  0  0
    1.9355    4.6276    2.1029 H   0  0  0  0  0  0  0  0  0  0  0  0
   -0.8305    4.9341    1.1564 H   0  0  0  0  0  0  0  0  0  0  0  0
   -0.2007    3.6345    2.2257 H   0  0  0  0  0  0  0  0  0  0  0  0
  1  2  1  0
  2  3  2  0
  2  4  1  0
  4  5  1  0
  5  6  1  0
  6  7  1  0
  7  8  1  0
  8  9  1  0
  9 10  1  0
 10 11  2  0
 11 12  1  0
 12 13  2  0
 13 14  1  0
 13 15  1  0
 15 16  1  0
 16 17  1  0
 17 18  1  0
 18 19  1  0
 19 20  1  0
 20 21  2  0
 20 22  1  0
 22 23  1  0
 22 24  1  0
 24 25  1  0
 25 26  2  0
 25 27  1  0
 27 28  1  0
 27 29  1  0
 29 30  1  0
 30 31  2  0
 30 32  1  0
 32 33  1  0
 32 34  1  0
 34 35  1  0
 35 36  2  0
 35 37  1  0
 37 38  1  0
 37 39  1  0
 39 40  1  0
 40 41  2  0
 40 42  1  0
 42 43  1  0
 42 44  1  0
 44 45  1  0
 45 46  2  0
 18 47  1  0
 47 48  2  0
 47 49  1  0
 49 50  1  0
 50 51  1  0
 50 52  1  0
 52 53  2  0
 52 54  1  0
 54 55  1  0
 55 56  1  0
 55 57  1  0
 57 58  2  0
 57 59  1  0
 59 60  1  0
 60 61  1  0
 60 62  1  0
 62 63  2  0
 62 64  1  0
 64 65  1  0
 65 66  1  0
 65 67  1  0
 67 68  2  0
 67 69  1  0
 69 70  1  0
 70 71  1  0
 70 72  1  0
 72 73  2  0
 72 74  1  0
 74 75  1  0
 75 76  1  0
 75 77  1  0
 77 78  2  0
 77 79  1  0
 79 80  1  0
 80 81  1  0
 80 82  1  0
 82 83  2  0
 82 84  1  0
 84 85  1  0
 85 86  1  0
 85 87  1  0
 87 88  2  0
 87 89  1  0
 89 90  1  0
 90 91  1  0
 90 92  1  0
 92 93  2  0
 92 94  1  0
 94 95  1  0
 95 96  1  0
 96 97  1  0
 96 98  2  0
 95 99  1  0
 99100  1  0
100101  1  0
 45  5  1  0
 14  9  2  0
101 11  1  0
  1102  1  0
  1103  1  0
  1104  1  0
  4105  1  0
  5106  1  1
  6107  1  0
  6108  1  0
  8109  1  0
  8110  1  0
 10111  1  0
 12112  1  0
 14113  1  0
 15114  1  0
 15115  1  0
 17116  1  0
 17117  1  0
 18118  1  6
 19119  1  0
 22120  1  6
 23121  1  0
 23122  1  0
 23123  1  0
 24124  1  0
 27125  1  1
 28126  1  0
 28127  1  0
 28128  1  0
 29129  1  0
 32130  1  6
 33131  1  0
 33132  1  0
 33133  1  0
 34134  1  0
 37135  1  6
 38136  1  0
 38137  1  0
 38138  1  0
 39139  1  0
 42140  1  6
 43141  1  0
 43142  1  0
 43143  1  0
 44144  1  0
 49145  1  0
 50146  1  6
 51147  1  0
 51148  1  0
 51149  1  0
 54150  1  0
 55151  1  6
 56152  1  0
 56153  1  0
 56154  1  0
 59155  1  0
 60156  1  1
 61157  1  0
 61158  1  0
 61159  1  0
 64160  1  0
 65161  1  1
 66162  1  0
 66163  1  0
 66164  1  0
 69165  1  0
 70166  1  6
 71167  1  0
 71168  1  0
 71169  1  0
 74170  1  0
 75171  1  6
 76172  1  0
 76173  1  0
 76174  1  0
 79175  1  0
 80176  1  6
 81177  1  0
 81178  1  0
 81179  1  0
 84180  1  0
 85181  1  6
 86182  1  0
 86183  1  0
 86184  1  0
 89185  1  0
 90186  1  6
 91187  1  0
 91188  1  0
 91189  1  0
 94190  1  0
 95191  1  6
 97192  1  0
 97193  1  0
 99194  1  0
 99195  1  0
101196  1  0
101197  1  0
M  END
