
     RDKit          3D

197199  0  0  0  0  0  0  0  0999 V2000
   -7.0554    7.1716   -0.6297 C   0  0  0  0  0  0  0  0  0  0  0  0
   -7.5565    6.0261   -1.4604 C   0  0  0  0  0  0  0  0  0  0  0  0
   -8.1683    6.2689   -2.5343 O   0  0  0  0  0  0  0  0  0  0  0  0
   -7.3518    4.6594   -1.0677 N   0  0  0  0  0  0  0  0  0  0  0  0
   -6.6770    4.2519    0.1737 C   0  0  2  0  0  0  0  0  0  0  0  0
   -6.1264    2.8175    0.0513 C   0  0  0  0  0  0  0  0  0  0  0  0
   -5.4802    2.1160    1.6229 S   0  0  0  0  0  0  0  0  0  0  0  0
   -4.0569    3.2410    1.8795 C   0  0  0  0  0  0  0  0  0  0  0  0
   -3.0463    3.1436    0.7683 C   0  0  0  0  0  0  0  0  0  0  0  0
   -2.7394    4.2672   -0.0117 C   0  0  0  0  0  0  0  0  0  0  0  0
   -1.7573    4.2001   -1.0130 C   0  0  0  0  0  0  0  0  0  0  0  0
   -1.0899    2.9890   -1.2453 C   0  0  0  0  0  0  0  0  0  0  0  0
   -1.4033    1.8465   -0.4927 C   0  0  0  0  0  0  0  0  0  0  0  0
   -2.3693    1.9367    0.5245 C   0  0  0  0  0  0  0  0  0  0  0  0
   -0.6591    0.5595   -0.7137 C   0  0  0  0  0  0  0  0  0  0  0  0
   -1.8109   -0.7913   -1.1670 S   0  0  0  0  0  0  0  0  0  0  0  0
   -1.2468   -1.9559    0.1306 C   0  0  0  0  0  0  0  0  0  0  0  0
   -1.8833   -3.3474   -0.0530 C   0  0  2  0  0  0  0  0  0  0  0  0
   -3.3465   -3.2805    0.0291 N   0  0  0  0  0  0  0  0  0  0  0  0
   -4.1485   -4.3628   -0.4659 C   0  0  0  0  0  0  0  0  0  0  0  0
   -3.8443   -4.9212   -1.5529 O   0  0  0  0  0  0  0  0  0  0  0  0
   -5.3075   -4.8975    0.3428 C   0  0  1  0  0  0  0  0  0  0  0  0
   -4.8855   -5.1648    1.7894 C   0  0  0  0  0  0  0  0  0  0  0  0
   -6.4253   -3.9590    0.2983 N   0  0  0  0  0  0  0  0  0  0  0  0
   -7.7657   -4.4336    0.4228 C   0  0  0  0  0  0  0  0  0  0  0  0
   -8.2300   -4.6771    1.5724 O   0  0  0  0  0  0  0  0  0  0  0  0
   -8.6187   -4.6352   -0.8060 C   0  0  1  0  0  0  0  0  0  0  0  0
   -8.0957   -5.8047   -1.6444 C   0  0  0  0  0  0  0  0  0  0  0  0
  -10.0118   -4.8890   -0.4275 N   0  0  0  0  0  0  0  0  0  0  0  0
  -11.1065   -4.1474   -0.9795 C   0  0  0  0  0  0  0  0  0  0  0  0
  -12.0100   -4.7768   -1.5948 O   0  0  0  0  0  0  0  0  0  0  0  0
  -11.2509   -2.6480   -0.7981 C   0  0  1  0  0  0  0  0  0  0  0  0
  -12.6142   -2.3316   -0.1692 C   0  0  0  0  0  0  0  0  0  0  0  0
  -10.1906   -2.1091    0.0553 N   0  0  0  0  0  0  0  0  0  0  0  0
   -9.2947   -1.0722   -0.3784 C   0  0  0  0  0  0  0  0  0  0  0  0
   -8.0754   -1.3444   -0.5338 O   0  0  0  0  0  0  0  0  0  0  0  0
   -9.7469    0.3571   -0.5438 C   0  0  1  0  0  0  0  0  0  0  0  0
  -10.5744    0.5566   -1.8145 C   0  0  0  0  0  0  0  0  0  0  0  0
  -10.5002    0.7968    0.6364 N   0  0  0  0  0  0  0  0  0  0  0  0
  -10.6468    2.1649    1.0704 C   0  0  0  0  0  0  0  0  0  0  0  0
  -11.4963    2.4180    1.9720 O   0  0  0  0  0  0  0  0  0  0  0  0
   -9.7677    3.3008    0.5709 C   0  0  1  0  0  0  0  0  0  0  0  0
  -10.6182    4.5433    0.2944 C   0  0  0  0  0  0  0  0  0  0  0  0
   -8.7582    3.6064    1.5892 N   0  0  0  0  0  0  0  0  0  0  0  0
   -7.5888    4.4190    1.3676 C   0  0  0  0  0  0  0  0  0  0  0  0
   -7.2601    5.2532    2.2549 O   0  0  0  0  0  0  0  0  0  0  0  0
   -1.3824   -4.2940    1.0201 C   0  0  0  0  0  0  0  0  0  0  0  0
   -1.4066   -3.9107    2.2277 O   0  0  0  0  0  0  0  0  0  0  0  0
   -1.0025   -5.6517    0.7386 N   0  0  0  0  0  0  0  0  0  0  0  0
   -0.6006   -6.1497   -0.5778 C   0  0  2  0  0  0  0  0  0  0  0  0
   -0.3943   -7.6726   -0.5599 C   0  0  0  0  0  0  0  0  0  0  0  0
    0.6314   -5.4361   -1.0974 C   0  0  0  0  0  0  0  0  0  0  0  0
    0.5928   -4.9694   -2.2706 O   0  0  0  0  0  0  0  0  0  0  0  0
    1.8321   -5.2282   -0.3252 N   0  0  0  0  0  0  0  0  0  0  0  0
    2.1855   -5.9026    0.9310 C   0  0  2  0  0  0  0  0  0  0  0  0
    2.9461   -4.9309    1.8378 C   0  0  0  0  0  0  0  0  0  0  0  0
    3.0252   -7.1331    0.6929 C   0  0  0  0  0  0  0  0  0  0  0  0
    3.1243   -7.9787    1.6207 O   0  0  0  0  0  0  0  0  0  0  0  0
    3.6845   -7.3674   -0.5678 N   0  0  0  0  0  0  0  0  0  0  0  0
    5.0800   -7.8093   -0.7199 C   0  0  2  0  0  0  0  0  0  0  0  0
    5.5517   -8.7834    0.3741 C   0  0  0  0  0  0  0  0  0  0  0  0
    5.9840   -6.6102   -0.8974 C   0  0  0  0  0  0  0  0  0  0  0  0
    5.9219   -5.9662   -1.9836 O   0  0  0  0  0  0  0  0  0  0  0  0
    6.9069   -6.1893    0.1231 N   0  0  0  0  0  0  0  0  0  0  0  0
    8.0913   -5.3821   -0.2002 C   0  0  2  0  0  0  0  0  0  0  0  0
    9.0608   -6.2066   -1.0532 C   0  0  0  0  0  0  0  0  0  0  0  0
    8.8146   -4.8936    1.0422 C   0  0  0  0  0  0  0  0  0  0  0  0
    8.6861   -5.5329    2.1196 O   0  0  0  0  0  0  0  0  0  0  0  0
    9.7463   -3.7929    1.0193 N   0  0  0  0  0  0  0  0  0  0  0  0
    9.9594   -2.8621   -0.0932 C   0  0  2  0  0  0  0  0  0  0  0  0
   11.4293   -2.9084   -0.5197 C   0  0  0  0  0  0  0  0  0  0  0  0
    9.5179   -1.4786    0.3271 C   0  0  0  0  0  0  0  0  0  0  0  0
    8.3279   -1.2991    0.6936 O   0  0  0  0  0  0  0  0  0  0  0  0
   10.4243   -0.3717    0.3514 N   0  0  0  0  0  0  0  0  0  0  0  0
   10.5970    0.4721   -0.8308 C   0  0  2  0  0  0  0  0  0  0  0  0
   12.0170    1.0451   -0.8639 C   0  0  0  0  0  0  0  0  0  0  0  0
    9.5297    1.5378   -0.8315 C   0  0  0  0  0  0  0  0  0  0  0  0
    8.4247    1.2908   -1.3914 O   0  0  0  0  0  0  0  0  0  0  0  0
    9.7174    2.7794   -0.1338 N   0  0  0  0  0  0  0  0  0  0  0  0
    8.7024    3.3541    0.7552 C   0  0  2  0  0  0  0  0  0  0  0  0
    8.4012    2.3836    1.9083 C   0  0  0  0  0  0  0  0  0  0  0  0
    7.4544    3.7286   -0.0194 C   0  0  0  0  0  0  0  0  0  0  0  0
    6.4459    2.9712    0.0296 O   0  0  0  0  0  0  0  0  0  0  0  0
    7.4072    4.8786   -0.8844 N   0  0  0  0  0  0  0  0  0  0  0  0
    8.0226    6.1846   -0.6073 C   0  0  2  0  0  0  0  0  0  0  0  0
    9.5033    6.1912   -1.0040 C   0  0  0  0  0  0  0  0  0  0  0  0
    7.7711    6.6108    0.8195 C   0  0  0  0  0  0  0  0  0  0  0  0
    8.7453    6.8426    1.5848 O   0  0  0  0  0  0  0  0  0  0  0  0
    6.4383    6.7456    1.3401 N   0  0  0  0  0  0  0  0  0  0  0  0
    5.2893    7.1775    0.5223 C   0  0  2  0  0  0  0  0  0  0  0  0
    5.3942    8.6918    0.3051 C   0  0  0  0  0  0  0  0  0  0  0  0
    3.9787    6.8298    1.2114 C   0  0  0  0  0  0  0  0  0  0  0  0
    3.9412    6.8242    2.4743 O   0  0  0  0  0  0  0  0  0  0  0  0
    2.7631    6.5039    0.5023 N   0  0  0  0  0  0  0  0  0  0  0  0
    2.5397    6.6641   -0.9384 C   0  0  2  0  0  0  0  0  0  0  0  0
    2.3617    8.1144   -1.3218 C   0  0  0  0  0  0  0  0  0  0  0  0
    1.9727    9.1034   -0.3613 N   0  0  0  0  0  0  0  0  0  0  0  0
    2.4949    8.4531   -2.5313 O   0  0  0  0  0  0  0  0  0  0  0  0
    1.3266    5.8352   -1.4153 C   0  0  0  0  0  0  0  0  0  0  0  0
   -0.2507    6.4669   -0.7294 S   0  0  0  0  0  0  0  0  0  0  0  0
   -1.3640    5.4426   -1.7674 C   0  0  0  0  0  0  0  0  0  0  0  0
   -7.3157    8.1330   -1.1183 H   0  0  0  0  0  0  0  0  0  0  0  0
   -7.5236    7.1499    0.3770 H   0  0  0  0  0  0  0  0  0  0  0  0
   -5.9510    7.1147   -0.5350 H   0  0  0  0  0  0  0  0  0  0  0  0
   -7.6375    3.9178   -1.7507 H   0  0  0  0  0  0  0  0  0  0  0  0
   -5.7972    4.9144    0.3048 H   0  0  0  0  0  0  0  0  0  0  0  0
   -6.9299    2.1414   -0.2935 H   0  0  0  0  0  0  0  0  0  0  0  0
   -5.3334    2.7849   -0.7213 H   0  0  0  0  0  0  0  0  0  0  0  0
   -4.4242    4.2822    2.0091 H   0  0  0  0  0  0  0  0  0  0  0  0
   -3.5581    2.9485    2.8272 H   0  0  0  0  0  0  0  0  0  0  0  0
   -3.2417    5.2117    0.1847 H   0  0  0  0  0  0  0  0  0  0  0  0
   -0.3251    2.9392   -2.0135 H   0  0  0  0  0  0  0  0  0  0  0  0
   -2.5823    1.0664    1.1343 H   0  0  0  0  0  0  0  0  0  0  0  0
    0.0755    0.6644   -1.5442 H   0  0  0  0  0  0  0  0  0  0  0  0
   -0.0767    0.3257    0.1972 H   0  0  0  0  0  0  0  0  0  0  0  0
   -1.5141   -1.5297    1.1240 H   0  0  0  0  0  0  0  0  0  0  0  0
   -0.1390   -2.0621    0.0614 H   0  0  0  0  0  0  0  0  0  0  0  0
   -1.5947   -3.6991   -1.0652 H   0  0  0  0  0  0  0  0  0  0  0  0
   -3.7751   -2.6033    0.7042 H   0  0  0  0  0  0  0  0  0  0  0  0
   -5.6171   -5.8680   -0.0994 H   0  0  0  0  0  0  0  0  0  0  0  0
   -4.6384   -4.2188    2.3113 H   0  0  0  0  0  0  0  0  0  0  0  0
   -5.7148   -5.6645    2.3365 H   0  0  0  0  0  0  0  0  0  0  0  0
   -4.0008   -5.8380    1.8124 H   0  0  0  0  0  0  0  0  0  0  0  0
   -6.2439   -2.9703    0.5847 H   0  0  0  0  0  0  0  0  0  0  0  0
   -8.5568   -3.7201   -1.4351 H   0  0  0  0  0  0  0  0  0  0  0  0
   -7.0871   -5.5659   -2.0513 H   0  0  0  0  0  0  0  0  0  0  0  0
   -8.0409   -6.7295   -1.0253 H   0  0  0  0  0  0  0  0  0  0  0  0
   -8.7715   -5.9839   -2.5066 H   0  0  0  0  0  0  0  0  0  0  0  0
  -10.2321   -5.7990    0.0344 H   0  0  0  0  0  0  0  0  0  0  0  0
  -11.2027   -2.1879   -1.8097 H   0  0  0  0  0  0  0  0  0  0  0  0
  -13.4357   -2.5962   -0.8624 H   0  0  0  0  0  0  0  0  0  0  0  0
  -12.7364   -2.9016    0.7786 H   0  0  0  0  0  0  0  0  0  0  0  0
  -12.6858   -1.2507    0.0552 H   0  0  0  0  0  0  0  0  0  0  0  0
  -10.0240   -2.5379    0.9910 H   0  0  0  0  0  0  0  0  0  0  0  0
   -8.8255    0.9561   -0.6425 H   0  0  0  0  0  0  0  0  0  0  0  0
  -10.6789    1.6411   -2.0278 H   0  0  0  0  0  0  0  0  0  0  0  0
  -10.0716    0.0741   -2.6813 H   0  0  0  0  0  0  0  0  0  0  0  0
  -11.5942    0.1296   -1.6969 H   0  0  0  0  0  0  0  0  0  0  0  0
  -11.0936    0.0988    1.1303 H   0  0  0  0  0  0  0  0  0  0  0  0
   -9.2813    3.0237   -0.3811 H   0  0  0  0  0  0  0  0  0  0  0  0
   -9.9971    5.3436   -0.1610 H   0  0  0  0  0  0  0  0  0  0  0  0
  -11.0608    4.9308    1.2353 H   0  0  0  0  0  0  0  0  0  0  0  0
  -11.4439    4.2962   -0.4110 H   0  0  0  0  0  0  0  0  0  0  0  0
   -9.0498    3.5120    2.5881 H   0  0  0  0  0  0  0  0  0  0  0  0
   -1.0088   -6.3232    1.5409 H   0  0  0  0  0  0  0  0  0  0  0  0
   -1.4380   -5.9698   -1.2872 H   0  0  0  0  0  0  0  0  0  0  0  0
    0.4442   -7.9649    0.0997 H   0  0  0  0  0  0  0  0  0  0  0  0
   -0.1812   -8.0467   -1.5848 H   0  0  0  0  0  0  0  0  0  0  0  0
   -1.3165   -8.1746   -0.1945 H   0  0  0  0  0  0  0  0  0  0  0  0
    2.5660   -4.6356   -0.7747 H   0  0  0  0  0  0  0  0  0  0  0  0
    1.2827   -6.2061    1.4772 H   0  0  0  0  0  0  0  0  0  0  0  0
    3.9088   -4.6331    1.3717 H   0  0  0  0  0  0  0  0  0  0  0  0
    3.1618   -5.4053    2.8175 H   0  0  0  0  0  0  0  0  0  0  0  0
    2.3366   -4.0234    2.0218 H   0  0  0  0  0  0  0  0  0  0  0  0
    3.2485   -6.9693   -1.4256 H   0  0  0  0  0  0  0  0  0  0  0  0
    5.1424   -8.3834   -1.6711 H   0  0  0  0  0  0  0  0  0  0  0  0
    6.5762   -9.1446    0.1387 H   0  0  0  0  0  0  0  0  0  0  0  0
    4.8757   -9.6642    0.4100 H   0  0  0  0  0  0  0  0  0  0  0  0
    5.5733   -8.3103    1.3774 H   0  0  0  0  0  0  0  0  0  0  0  0
    6.6345   -6.3459    1.1226 H   0  0  0  0  0  0  0  0  0  0  0  0
    7.7376   -4.5044   -0.7874 H   0  0  0  0  0  0  0  0  0  0  0  0
    9.4135   -7.0944   -0.4850 H   0  0  0  0  0  0  0  0  0  0  0  0
    9.9393   -5.5969   -1.3499 H   0  0  0  0  0  0  0  0  0  0  0  0
    8.5645   -6.5598   -1.9815 H   0  0  0  0  0  0  0  0  0  0  0  0
   10.2768   -3.6040    1.9002 H   0  0  0  0  0  0  0  0  0  0  0  0
    9.3630   -3.1328   -0.9837 H   0  0  0  0  0  0  0  0  0  0  0  0
   11.5907   -2.2838   -1.4252 H   0  0  0  0  0  0  0  0  0  0  0  0
   11.7110   -3.9509   -0.7702 H   0  0  0  0  0  0  0  0  0  0  0  0
   12.0883   -2.5462    0.2972 H   0  0  0  0  0  0  0  0  0  0  0  0
   10.6191    0.0638    1.2860 H   0  0  0  0  0  0  0  0  0  0  0  0
   10.4690   -0.1486   -1.7504 H   0  0  0  0  0  0  0  0  0  0  0  0
   12.1352    1.7449   -1.7232 H   0  0  0  0  0  0  0  0  0  0  0  0
   12.7483    0.2197   -0.9839 H   0  0  0  0  0  0  0  0  0  0  0  0
   12.2509    1.5769    0.0821 H   0  0  0  0  0  0  0  0  0  0  0  0
   10.6240    3.2892   -0.2520 H   0  0  0  0  0  0  0  0  0  0  0  0
    9.1128    4.2661    1.2315 H   0  0  0  0  0  0  0  0  0  0  0  0
    7.9896    1.4298    1.5247 H   0  0  0  0  0  0  0  0  0  0  0  0
    7.6611    2.8330    2.6054 H   0  0  0  0  0  0  0  0  0  0  0  0
    9.3292    2.1652    2.4746 H   0  0  0  0  0  0  0  0  0  0  0  0
    6.6950    4.8507   -1.6541 H   0  0  0  0  0  0  0  0  0  0  0  0
    7.5387    6.9401   -1.2643 H   0  0  0  0  0  0  0  0  0  0  0  0
    9.6202    5.8155   -2.0431 H   0  0  0  0  0  0  0  0  0  0  0  0
   10.1191    5.5651   -0.3324 H   0  0  0  0  0  0  0  0  0  0  0  0
    9.9035    7.2263   -0.9634 H   0  0  0  0  0  0  0  0  0  0  0  0
    6.3702    6.8330    2.3782 H   0  0  0  0  0  0  0  0  0  0  0  0
    5.3273    6.6658   -0.4617 H   0  0  0  0  0  0  0  0  0  0  0  0
    5.2609    9.2366    1.2603 H   0  0  0  0  0  0  0  0  0  0  0  0
    4.6360    9.0436   -0.4254 H   0  0  0  0  0  0  0  0  0  0  0  0
    6.3920    8.9526   -0.1111 H   0  0  0  0  0  0  0  0  0  0  0  0
    1.9735    6.1508    1.0916 H   0  0  0  0  0  0  0  0  0  0  0  0
    3.4168    6.2654   -1.4861 H   0  0  0  0  0  0  0  0  0  0  0  0
    1.9665   10.1142   -0.6198 H   0  0  0  0  0  0  0  0  0  0  0  0
    1.8082    8.8535    0.6455 H   0  0  0  0  0  0  0  0  0  0  0  0
    1.2859    5.8757   -2.5225 H   0  0  0  0  0  0  0  0  0  0  0  0
    1.4553    4.7774   -1.1067 H   0  0  0  0  0  0  0  0  0  0  0  0
   -0.9054    5.1794   -2.7403 H   0  0  0  0  0  0  0  0  0  0  0  0
   -2.2708    6.0407   -1.9912 H   0  0  0  0  0  0  0  0  0  0  0  0
  1  2  1  0
  2  3  2  0
  2  4  1  0
  4  5  1  0
  5  6  1  0
  6  7  1  0
  7  8  1  0
  8  9  1  0
  9 10  1  0
 10 11  2  0
 11 12  1  0
 12 13  2  0
 13 14  1  0
 13 15  1  0
 15 16  1  0
 16 17  1  0
 17 18  1  0
 18 19  1  0
 19 20  1  0
 20 21  2  0
 20 22  1  0
 22 23  1  0
 22 24  1  0
 24 25  1  0
 25 26  2  0
 25 27  1  0
 27 28  1  0
 27 29  1  0
 29 30  1  0
 30 31  2  0
 30 32  1  0
 32 33  1  0
 32 34  1  0
 34 35  1  0
 35 36  2  0
 35 37  1  0
 37 38  1  0
 37 39  1  0
 39 40  1  0
 40 41  2  0
 40 42  1  0
 42 43  1  0
 42 44  1  0
 44 45  1  0
 45 46  2  0
 18 47  1  0
 47 48  2  0
 47 49  1  0
 49 50  1  0
 50 51  1  0
 50 52  1  0
 52 53  2  0
 52 54  1  0
 54 55  1  0
 55 56  1  0
 55 57  1  0
 57 58  2  0
 57 59  1  0
 59 60  1  0
 60 61  1  0
 60 62  1  0
 62 63  2  0
 62 64  1  0
 64 65  1  0
 65 66  1  0
 65 67  1  0
 67 68  2  0
 67 69  1  0
 69 70  1  0
 70 71  1  0
 70 72  1  0
 72 73  2  0
 72 74  1  0
 74 75  1  0
 75 76  1  0
 75 77  1  0
 77 78  2  0
 77 79  1  0
 79 80  1  0
 80 81  1  0
 80 82  1  0
 82 83  2  0
 82 84  1  0
 84 85  1  0
 85 86  1  0
 85 87  1  0
 87 88  2  0
 87 89  1  0
 89 90  1  0
 90 91  1  0
 90 92  1  0
 92 93  2  0
 92 94  1  0
 94 95  1  0
 95 96  1  0
 96 97  1  0
 96 98  2  0
 95 99  1  0
 99100  1  0
100101  1  0
 45  5  1  0
 14  9  2  0
101 11  1  0
  1102  1  0
  1103  1  0
  1104  1  0
  4105  1  0
  5106  1  1
  6107  1  0
  6108  1  0
  8109  1  0
  8110  1  0
 10111  1  0
 12112  1  0
 14113  1  0
 15114  1  0
 15115  1  0
 17116  1  0
 17117  1  0
 18118  1  6
 19119  1  0
 22120  1  6
 23121  1  0
 23122  1  0
 23123  1  0
 24124  1  0
 27125  1  6
 28126  1  0
 28127  1  0
 28128  1  0
 29129  1  0
 32130  1  6
 33131  1  0
 33132  1  0
 33133  1  0
 34134  1  0
 37135  1  6
 38136  1  0
 38137  1  0
 38138  1  0
 39139  1  0
 42140  1  6
 43141  1  0
 43142  1  0
 43143  1  0
 44144  1  0
 49145  1  0
 50146  1  6
 51147  1  0
 51148  1  0
 51149  1  0
 54150  1  0
 55151  1  1
 56152  1  0
 56153  1  0
 56154  1  0
 59155  1  0
 60156  1  6
 61157  1  0
 61158  1  0
 61159  1  0
 64160  1  0
 65161  1  6
 66162  1  0
 66163  1  0
 66164  1  0
 69165  1  0
 70166  1  6
 71167  1  0
 71168  1  0
 71169  1  0
 74170  1  0
 75171  1  6
 76172  1  0
 76173  1  0
 76174  1  0
 79175  1  0
 80176  1  1
 81177  1  0
 81178  1  0
 81179  1  0
 84180  1  0
 85181  1  6
 86182  1  0
 86183  1  0
 86184  1  0
 89185  1  0
 90186  1  6
 91187  1  0
 91188  1  0
 91189  1  0
 94190  1  0
 95191  1  6
 97192  1  0
 97193  1  0
 99194  1  0
 99195  1  0
101196  1  0
101197  1  0
M  END
