
     RDKit          3D

207209  0  0  0  0  0  0  0  0999 V2000
  -10.9918   -6.1081    2.6686 C   0  0  0  0  0  0  0  0  0  0  0  0
   -9.9271   -6.1231    1.6243 C   0  0  0  0  0  0  0  0  0  0  0  0
   -9.3661   -7.2213    1.3285 O   0  0  0  0  0  0  0  0  0  0  0  0
   -9.4584   -4.8991    1.0480 N   0  0  0  0  0  0  0  0  0  0  0  0
   -8.6160   -4.8693   -0.1505 C   0  0  2  0  0  0  0  0  0  0  0  0
   -7.9037   -3.5151   -0.2941 C   0  0  0  0  0  0  0  0  0  0  0  0
   -6.6695   -3.5334   -1.6441 S   0  0  0  0  0  0  0  0  0  0  0  0
   -5.9655   -1.8878   -1.2334 C   0  0  0  0  0  0  0  0  0  0  0  0
   -4.5049   -1.9796   -0.8595 C   0  0  0  0  0  0  0  0  0  0  0  0
   -4.0621   -2.9378    0.0670 C   0  0  0  0  0  0  0  0  0  0  0  0
   -2.7414   -2.9235    0.5474 C   0  0  0  0  0  0  0  0  0  0  0  0
   -1.8802   -1.8965    0.1353 C   0  0  0  0  0  0  0  0  0  0  0  0
   -2.2969   -0.9321   -0.8043 C   0  0  0  0  0  0  0  0  0  0  0  0
   -3.6061   -1.0076   -1.3221 C   0  0  0  0  0  0  0  0  0  0  0  0
   -1.3183    0.1515   -1.1907 C   0  0  0  0  0  0  0  0  0  0  0  0
   -2.0637    1.5684   -2.1015 S   0  0  0  0  0  0  0  0  0  0  0  0
   -0.9481    2.8633   -1.4328 C   0  0  0  0  0  0  0  0  0  0  0  0
   -1.4689    3.3596   -0.0741 C   0  0  2  0  0  0  0  0  0  0  0  0
   -2.6993    4.1433   -0.2666 N   0  0  0  0  0  0  0  0  0  0  0  0
   -3.8073    3.9681    0.6093 C   0  0  0  0  0  0  0  0  0  0  0  0
   -4.0197    4.8155    1.5120 O   0  0  0  0  0  0  0  0  0  0  0  0
   -4.7872    2.8488    0.3680 C   0  0  1  0  0  0  0  0  0  0  0  0
   -5.4277    2.3483    1.6657 C   0  0  0  0  0  0  0  0  0  0  0  0
   -5.7994    3.2627   -0.6076 N   0  0  0  0  0  0  0  0  0  0  0  0
   -6.6013    4.4395   -0.4329 C   0  0  0  0  0  0  0  0  0  0  0  0
   -6.2641    5.5083   -1.0019 O   0  0  0  0  0  0  0  0  0  0  0  0
   -7.8902    4.3827    0.3449 C   0  0  1  0  0  0  0  0  0  0  0  0
   -7.8746    5.4059    1.4868 C   0  0  0  0  0  0  0  0  0  0  0  0
   -9.0126    4.6568   -0.5475 N   0  0  0  0  0  0  0  0  0  0  0  0
  -10.2016    3.8496   -0.6143 C   0  0  0  0  0  0  0  0  0  0  0  0
  -11.3223    4.4197   -0.5233 O   0  0  0  0  0  0  0  0  0  0  0  0
  -10.1727    2.3542   -0.8362 C   0  0  1  0  0  0  0  0  0  0  0  0
   -8.9839    1.9108   -1.7002 C   0  0  0  0  0  0  0  0  0  0  0  0
  -10.1867    1.6341    0.4423 N   0  0  0  0  0  0  0  0  0  0  0  0
  -10.3602    0.2086    0.5338 C   0  0  0  0  0  0  0  0  0  0  0  0
   -9.4758   -0.4718    1.1224 O   0  0  0  0  0  0  0  0  0  0  0  0
  -11.5774   -0.5041   -0.0027 C   0  0  1  0  0  0  0  0  0  0  0  0
  -12.8655    0.2971    0.2291 C   0  0  0  0  0  0  0  0  0  0  0  0
  -11.4170   -0.8063   -1.4301 N   0  0  0  0  0  0  0  0  0  0  0  0
  -11.2980   -2.1176   -2.0168 C   0  0  0  0  0  0  0  0  0  0  0  0
  -11.3056   -2.2133   -3.2741 O   0  0  0  0  0  0  0  0  0  0  0  0
  -11.2447   -3.3856   -1.1905 C   0  0  1  0  0  0  0  0  0  0  0  0
  -12.6606   -3.8839   -0.8962 C   0  0  0  0  0  0  0  0  0  0  0  0
  -10.4988   -4.4269   -1.9120 N   0  0  0  0  0  0  0  0  0  0  0  0
   -9.4252   -5.2378   -1.3782 C   0  0  0  0  0  0  0  0  0  0  0  0
   -9.0997   -6.2829   -2.0062 O   0  0  0  0  0  0  0  0  0  0  0  0
   -0.4375    4.2037    0.6347 C   0  0  0  0  0  0  0  0  0  0  0  0
    0.7839    3.8795    0.6060 O   0  0  0  0  0  0  0  0  0  0  0  0
   -0.8578    5.3158    1.4304 N   0  0  0  0  0  0  0  0  0  0  0  0
   -0.4572    6.7084    1.1982 C   0  0  2  0  0  0  0  0  0  0  0  0
   -1.7036    7.5962    1.2516 C   0  0  0  0  0  0  0  0  0  0  0  0
    0.2362    6.9055   -0.1351 C   0  0  0  0  0  0  0  0  0  0  0  0
   -0.3142    6.4873   -1.1882 O   0  0  0  0  0  0  0  0  0  0  0  0
    1.4926    7.5833   -0.2332 N   0  0  0  0  0  0  0  0  0  0  0  0
    1.9022    8.6647    0.6751 C   0  0  2  0  0  0  0  0  0  0  0  0
    2.3163    9.8962   -0.1325 C   0  0  0  0  0  0  0  0  0  0  0  0
    3.0158    8.2080    1.5922 C   0  0  0  0  0  0  0  0  0  0  0  0
    3.4113    8.9803    2.5115 O   0  0  0  0  0  0  0  0  0  0  0  0
    3.5773    6.8922    1.4883 N   0  0  0  0  0  0  0  0  0  0  0  0
    4.8125    6.5862    0.7479 C   0  0  2  0  0  0  0  0  0  0  0  0
    5.1205    7.6409   -0.3325 C   0  0  0  0  0  0  0  0  0  0  0  0
    4.7021    5.2096    0.1351 C   0  0  0  0  0  0  0  0  0  0  0  0
    3.5613    4.7658   -0.1783 O   0  0  0  0  0  0  0  0  0  0  0  0
    5.8440    4.3528   -0.0424 N   0  0  0  0  0  0  0  0  0  0  0  0
    7.1535    4.8419   -0.4678 C   0  0  2  0  0  0  0  0  0  0  0  0
    7.1500    5.0448   -1.9856 C   0  0  0  0  0  0  0  0  0  0  0  0
    8.2469    3.9154    0.0278 C   0  0  0  0  0  0  0  0  0  0  0  0
    8.2775    3.6251    1.2537 O   0  0  0  0  0  0  0  0  0  0  0  0
    9.2936    3.4454   -0.8363 N   0  0  0  0  0  0  0  0  0  0  0  0
   10.6212    3.0947   -0.3202 C   0  0  2  0  0  0  0  0  0  0  0  0
   11.3396    4.3545    0.1843 C   0  0  0  0  0  0  0  0  0  0  0  0
   11.4320    2.4213   -1.4090 C   0  0  0  0  0  0  0  0  0  0  0  0
   11.8297    3.1258   -2.3764 O   0  0  0  0  0  0  0  0  0  0  0  0
   11.7677    1.0197   -1.3997 N   0  0  0  0  0  0  0  0  0  0  0  0
   11.2466   -0.0159   -0.4944 C   0  0  2  0  0  0  0  0  0  0  0  0
    9.7083   -0.0034   -0.4337 C   0  0  0  0  0  0  0  0  0  0  0  0
   11.9031    0.0711    0.8723 C   0  0  0  0  0  0  0  0  0  0  0  0
   12.5562    1.1058    1.1761 O   0  0  0  0  0  0  0  0  0  0  0  0
   11.8485   -0.9969    1.8370 N   0  0  0  0  0  0  0  0  0  0  0  0
   11.2080   -2.3045    1.6301 C   0  0  2  0  0  0  0  0  0  0  0  0
   11.2409   -3.1070    2.9360 C   0  0  0  0  0  0  0  0  0  0  0  0
   11.9187   -3.0726    0.5432 C   0  0  0  0  0  0  0  0  0  0  0  0
   13.1733   -2.9844    0.4532 O   0  0  0  0  0  0  0  0  0  0  0  0
   11.1955   -3.8523   -0.4254 N   0  0  0  0  0  0  0  0  0  0  0  0
   10.0535   -4.6989   -0.0587 C   0  0  2  0  0  0  0  0  0  0  0  0
   10.5818   -6.0087    0.5461 C   0  0  0  0  0  0  0  0  0  0  0  0
    9.1731   -4.9719   -1.2640 C   0  0  0  0  0  0  0  0  0  0  0  0
    9.4759   -4.4651   -2.3789 O   0  0  0  0  0  0  0  0  0  0  0  0
    8.0327   -5.8458   -1.2087 N   0  0  0  0  0  0  0  0  0  0  0  0
    7.1796   -6.0513   -0.0298 C   0  0  2  0  0  0  0  0  0  0  0  0
    7.2340   -7.5243    0.4022 C   0  0  0  0  0  0  0  0  0  0  0  0
    5.7470   -5.6796   -0.3261 C   0  0  0  0  0  0  0  0  0  0  0  0
    5.1598   -4.8430    0.4131 O   0  0  0  0  0  0  0  0  0  0  0  0
    5.0144   -6.3474   -1.3669 N   0  0  0  0  0  0  0  0  0  0  0  0
    3.6504   -6.8421   -1.1620 C   0  0  2  0  0  0  0  0  0  0  0  0
    3.5914   -8.3359   -1.5222 C   0  0  0  0  0  0  0  0  0  0  0  0
    2.6649   -6.0665   -2.0075 C   0  0  0  0  0  0  0  0  0  0  0  0
    3.0287   -5.6541   -3.1399 O   0  0  0  0  0  0  0  0  0  0  0  0
    1.3017   -5.8494   -1.5931 N   0  0  0  0  0  0  0  0  0  0  0  0
    0.8768   -5.8050   -0.1878 C   0  0  2  0  0  0  0  0  0  0  0  0
    0.6545   -7.2050    0.3254 C   0  0  0  0  0  0  0  0  0  0  0  0
    1.2860   -7.6478    1.5283 N   0  0  0  0  0  0  0  0  0  0  0  0
   -0.0977   -7.9892   -0.3107 O   0  0  0  0  0  0  0  0  0  0  0  0
   -0.4092   -4.9667   -0.0386 C   0  0  0  0  0  0  0  0  0  0  0  0
   -0.5608   -4.3341    1.6722 S   0  0  0  0  0  0  0  0  0  0  0  0
   -2.3454   -3.9169    1.6122 C   0  0  0  0  0  0  0  0  0  0  0  0
  -10.5839   -6.5251    3.6105 H   0  0  0  0  0  0  0  0  0  0  0  0
  -11.8400   -6.7483    2.3256 H   0  0  0  0  0  0  0  0  0  0  0  0
  -11.3728   -5.0768    2.8388 H   0  0  0  0  0  0  0  0  0  0  0  0
   -9.6562   -4.0096    1.5585 H   0  0  0  0  0  0  0  0  0  0  0  0
   -7.8107   -5.6289   -0.0213 H   0  0  0  0  0  0  0  0  0  0  0  0
   -8.6217   -2.6923   -0.4895 H   0  0  0  0  0  0  0  0  0  0  0  0
   -7.3851   -3.2962    0.6659 H   0  0  0  0  0  0  0  0  0  0  0  0
   -6.5023   -1.4085   -0.3891 H   0  0  0  0  0  0  0  0  0  0  0  0
   -6.1156   -1.2256   -2.1053 H   0  0  0  0  0  0  0  0  0  0  0  0
   -4.7460   -3.7046    0.4237 H   0  0  0  0  0  0  0  0  0  0  0  0
   -0.8834   -1.8196    0.5578 H   0  0  0  0  0  0  0  0  0  0  0  0
   -3.9603   -0.2723   -2.0342 H   0  0  0  0  0  0  0  0  0  0  0  0
   -0.8271    0.5130   -0.2693 H   0  0  0  0  0  0  0  0  0  0  0  0
   -0.5291   -0.2944   -1.8300 H   0  0  0  0  0  0  0  0  0  0  0  0
    0.0747    2.4398   -1.3563 H   0  0  0  0  0  0  0  0  0  0  0  0
   -0.9130    3.7062   -2.1590 H   0  0  0  0  0  0  0  0  0  0  0  0
   -1.6767    2.4821    0.5749 H   0  0  0  0  0  0  0  0  0  0  0  0
   -2.6527    5.0276   -0.8249 H   0  0  0  0  0  0  0  0  0  0  0  0
   -4.2223    1.9955   -0.0593 H   0  0  0  0  0  0  0  0  0  0  0  0
   -5.9455    3.1620    2.2116 H   0  0  0  0  0  0  0  0  0  0  0  0
   -4.6476    1.9257    2.3376 H   0  0  0  0  0  0  0  0  0  0  0  0
   -6.1664    1.5514    1.4327 H   0  0  0  0  0  0  0  0  0  0  0  0
   -5.6982    2.9034   -1.5857 H   0  0  0  0  0  0  0  0  0  0  0  0
   -7.9900    3.3743    0.7965 H   0  0  0  0  0  0  0  0  0  0  0  0
   -8.7969    5.3024    2.0983 H   0  0  0  0  0  0  0  0  0  0  0  0
   -7.8318    6.4412    1.0891 H   0  0  0  0  0  0  0  0  0  0  0  0
   -6.9933    5.2488    2.1497 H   0  0  0  0  0  0  0  0  0  0  0  0
   -9.0663    5.6125   -0.9728 H   0  0  0  0  0  0  0  0  0  0  0  0
  -11.0952    2.1131   -1.4032 H   0  0  0  0  0  0  0  0  0  0  0  0
   -8.0394    1.9563   -1.1309 H   0  0  0  0  0  0  0  0  0  0  0  0
   -9.1222    0.8599   -2.0263 H   0  0  0  0  0  0  0  0  0  0  0  0
   -8.9048    2.5476   -2.6094 H   0  0  0  0  0  0  0  0  0  0  0  0
   -9.8138    2.1147    1.2914 H   0  0  0  0  0  0  0  0  0  0  0  0
  -11.7055   -1.4290    0.5869 H   0  0  0  0  0  0  0  0  0  0  0  0
  -13.7448   -0.3301   -0.0353 H   0  0  0  0  0  0  0  0  0  0  0  0
  -12.9496    0.5826    1.3020 H   0  0  0  0  0  0  0  0  0  0  0  0
  -12.8956    1.2154   -0.3865 H   0  0  0  0  0  0  0  0  0  0  0  0
  -11.4145   -0.0055   -2.0989 H   0  0  0  0  0  0  0  0  0  0  0  0
  -10.7578   -3.1733   -0.2317 H   0  0  0  0  0  0  0  0  0  0  0  0
  -12.6135   -4.8074   -0.2796 H   0  0  0  0  0  0  0  0  0  0  0  0
  -13.2307   -3.1157   -0.3359 H   0  0  0  0  0  0  0  0  0  0  0  0
  -13.1915   -4.1161   -1.8477 H   0  0  0  0  0  0  0  0  0  0  0  0
  -10.8743   -4.7225   -2.8461 H   0  0  0  0  0  0  0  0  0  0  0  0
   -1.4396    5.0995    2.2735 H   0  0  0  0  0  0  0  0  0  0  0  0
    0.2169    7.0032    2.0310 H   0  0  0  0  0  0  0  0  0  0  0  0
   -2.1637    7.5493    2.2637 H   0  0  0  0  0  0  0  0  0  0  0  0
   -1.4429    8.6572    1.0473 H   0  0  0  0  0  0  0  0  0  0  0  0
   -2.4563    7.2488    0.5149 H   0  0  0  0  0  0  0  0  0  0  0  0
    2.0588    7.4158   -1.0940 H   0  0  0  0  0  0  0  0  0  0  0  0
    1.0501    8.9805    1.3116 H   0  0  0  0  0  0  0  0  0  0  0  0
    2.6534   10.7173    0.5380 H   0  0  0  0  0  0  0  0  0  0  0  0
    3.1289    9.6590   -0.8483 H   0  0  0  0  0  0  0  0  0  0  0  0
    1.4440   10.2688   -0.7087 H   0  0  0  0  0  0  0  0  0  0  0  0
    3.2696    6.2031    2.2124 H   0  0  0  0  0  0  0  0  0  0  0  0
    5.6477    6.5890    1.4825 H   0  0  0  0  0  0  0  0  0  0  0  0
    6.1222    7.4913   -0.7715 H   0  0  0  0  0  0  0  0  0  0  0  0
    4.3716    7.5988   -1.1484 H   0  0  0  0  0  0  0  0  0  0  0  0
    5.1323    8.6583    0.1084 H   0  0  0  0  0  0  0  0  0  0  0  0
    5.6516    3.3365   -0.1810 H   0  0  0  0  0  0  0  0  0  0  0  0
    7.3635    5.8184    0.0171 H   0  0  0  0  0  0  0  0  0  0  0  0
    6.3159    5.7109   -2.2868 H   0  0  0  0  0  0  0  0  0  0  0  0
    7.0046    4.0758   -2.5102 H   0  0  0  0  0  0  0  0  0  0  0  0
    8.0968    5.5153   -2.3219 H   0  0  0  0  0  0  0  0  0  0  0  0
    9.1388    3.4153   -1.8678 H   0  0  0  0  0  0  0  0  0  0  0  0
   10.4996    2.4214    0.5459 H   0  0  0  0  0  0  0  0  0  0  0  0
   10.7719    4.8185    1.0177 H   0  0  0  0  0  0  0  0  0  0  0  0
   11.4293    5.1115   -0.6262 H   0  0  0  0  0  0  0  0  0  0  0  0
   12.3555    4.0971    0.5551 H   0  0  0  0  0  0  0  0  0  0  0  0
   12.3888    0.6937   -2.1789 H   0  0  0  0  0  0  0  0  0  0  0  0
   11.5398   -0.9846   -0.9408 H   0  0  0  0  0  0  0  0  0  0  0  0
    9.2764    0.5011   -1.3262 H   0  0  0  0  0  0  0  0  0  0  0  0
    9.3154   -1.0405   -0.4405 H   0  0  0  0  0  0  0  0  0  0  0  0
    9.3304    0.4995    0.4795 H   0  0  0  0  0  0  0  0  0  0  0  0
   12.2462   -0.7851    2.7804 H   0  0  0  0  0  0  0  0  0  0  0  0
   10.1423   -2.1433    1.3661 H   0  0  0  0  0  0  0  0  0  0  0  0
   12.2927   -3.2668    3.2560 H   0  0  0  0  0  0  0  0  0  0  0  0
   10.7064   -2.5495    3.7390 H   0  0  0  0  0  0  0  0  0  0  0  0
   10.7478   -4.0915    2.8136 H   0  0  0  0  0  0  0  0  0  0  0  0
   11.7274   -4.1062   -1.2868 H   0  0  0  0  0  0  0  0  0  0  0  0
    9.4370   -4.1806    0.7006 H   0  0  0  0  0  0  0  0  0  0  0  0
    9.8504   -6.4173    1.2708 H   0  0  0  0  0  0  0  0  0  0  0  0
   11.5227   -5.8368    1.1056 H   0  0  0  0  0  0  0  0  0  0  0  0
   10.7910   -6.7618   -0.2456 H   0  0  0  0  0  0  0  0  0  0  0  0
    7.7731   -6.3367   -2.0937 H   0  0  0  0  0  0  0  0  0  0  0  0
    7.5428   -5.4377    0.8184 H   0  0  0  0  0  0  0  0  0  0  0  0
    6.7977   -8.1800   -0.3825 H   0  0  0  0  0  0  0  0  0  0  0  0
    6.6619   -7.6603    1.3468 H   0  0  0  0  0  0  0  0  0  0  0  0
    8.2774   -7.8531    0.5678 H   0  0  0  0  0  0  0  0  0  0  0  0
    5.5222   -6.6279   -2.2367 H   0  0  0  0  0  0  0  0  0  0  0  0
    3.3943   -6.7537   -0.0902 H   0  0  0  0  0  0  0  0  0  0  0  0
    2.5944   -8.7481   -1.2667 H   0  0  0  0  0  0  0  0  0  0  0  0
    4.3656   -8.8881   -0.9492 H   0  0  0  0  0  0  0  0  0  0  0  0
    3.7731   -8.4777   -2.6075 H   0  0  0  0  0  0  0  0  0  0  0  0
    0.6340   -5.5391   -2.3323 H   0  0  0  0  0  0  0  0  0  0  0  0
    1.6753   -5.3038    0.4098 H   0  0  0  0  0  0  0  0  0  0  0  0
    1.1036   -8.6114    1.8928 H   0  0  0  0  0  0  0  0  0  0  0  0
    1.9243   -7.0150    2.0613 H   0  0  0  0  0  0  0  0  0  0  0  0
   -1.3048   -5.5653   -0.3174 H   0  0  0  0  0  0  0  0  0  0  0  0
   -0.3624   -4.0978   -0.7257 H   0  0  0  0  0  0  0  0  0  0  0  0
   -2.6298   -3.4936    2.5967 H   0  0  0  0  0  0  0  0  0  0  0  0
   -2.9062   -4.8637    1.4855 H   0  0  0  0  0  0  0  0  0  0  0  0
  1  2  1  0
  2  3  2  0
  2  4  1  0
  4  5  1  0
  5  6  1  0
  6  7  1  0
  7  8  1  0
  8  9  1  0
  9 10  1  0
 10 11  2  0
 11 12  1  0
 12 13  2  0
 13 14  1  0
 13 15  1  0
 15 16  1  0
 16 17  1  0
 17 18  1  0
 18 19  1  0
 19 20  1  0
 20 21  2  0
 20 22  1  0
 22 23  1  0
 22 24  1  0
 24 25  1  0
 25 26  2  0
 25 27  1  0
 27 28  1  0
 27 29  1  0
 29 30  1  0
 30 31  2  0
 30 32  1  0
 32 33  1  0
 32 34  1  0
 34 35  1  0
 35 36  2  0
 35 37  1  0
 37 38  1  0
 37 39  1  0
 39 40  1  0
 40 41  2  0
 40 42  1  0
 42 43  1  0
 42 44  1  0
 44 45  1  0
 45 46  2  0
 18 47  1  0
 47 48  2  0
 47 49  1  0
 49 50  1  0
 50 51  1  0
 50 52  1  0
 52 53  2  0
 52 54  1  0
 54 55  1  0
 55 56  1  0
 55 57  1  0
 57 58  2  0
 57 59  1  0
 59 60  1  0
 60 61  1  0
 60 62  1  0
 62 63  2  0
 62 64  1  0
 64 65  1  0
 65 66  1  0
 65 67  1  0
 67 68  2  0
 67 69  1  0
 69 70  1  0
 70 71  1  0
 70 72  1  0
 72 73  2  0
 72 74  1  0
 74 75  1  0
 75 76  1  0
 75 77  1  0
 77 78  2  0
 77 79  1  0
 79 80  1  0
 80 81  1  0
 80 82  1  0
 82 83  2  0
 82 84  1  0
 84 85  1  0
 85 86  1  0
 85 87  1  0
 87 88  2  0
 87 89  1  0
 89 90  1  0
 90 91  1  0
 90 92  1  0
 92 93  2  0
 92 94  1  0
 94 95  1  0
 95 96  1  0
 95 97  1  0
 97 98  2  0
 97 99  1  0
 99100  1  0
100101  1  0
101102  1  0
101103  2  0
100104  1  0
104105  1  0
105106  1  0
 45  5  1  0
 14  9  2  0
106 11  1  0
  1107  1  0
  1108  1  0
  1109  1  0
  4110  1  0
  5111  1  1
  6112  1  0
  6113  1  0
  8114  1  0
  8115  1  0
 10116  1  0
 12117  1  0
 14118  1  0
 15119  1  0
 15120  1  0
 17121  1  0
 17122  1  0
 18123  1  1
 19124  1  0
 22125  1  6
 23126  1  0
 23127  1  0
 23128  1  0
 24129  1  0
 27130  1  1
 28131  1  0
 28132  1  0
 28133  1  0
 29134  1  0
 32135  1  6
 33136  1  0
 33137  1  0
 33138  1  0
 34139  1  0
 37140  1  1
 38141  1  0
 38142  1  0
 38143  1  0
 39144  1  0
 42145  1  1
 43146  1  0
 43147  1  0
 43148  1  0
 44149  1  0
 49150  1  0
 50151  1  1
 51152  1  0
 51153  1  0
 51154  1  0
 54155  1  0
 55156  1  1
 56157  1  0
 56158  1  0
 56159  1  0
 59160  1  0
 60161  1  1
 61162  1  0
 61163  1  0
 61164  1  0
 64165  1  0
 65166  1  1
 66167  1  0
 66168  1  0
 66169  1  0
 69170  1  0
 70171  1  1
 71172  1  0
 71173  1  0
 71174  1  0
 74175  1  0
 75176  1  6
 76177  1  0
 76178  1  0
 76179  1  0
 79180  1  0
 80181  1  6
 81182  1  0
 81183  1  0
 81184  1  0
 84185  1  0
 85186  1  1
 86187  1  0
 86188  1  0
 86189  1  0
 89190  1  0
 90191  1  1
 91192  1  0
 91193  1  0
 91194  1  0
 94195  1  0
 95196  1  1
 96197  1  0
 96198  1  0
 96199  1  0
 99200  1  0
100201  1  1
102202  1  0
102203  1  0
104204  1  0
104205  1  0
106206  1  0
106207  1  0
M  END
