
     RDKit          3D

157159  0  0  0  0  0  0  0  0999 V2000
    5.4752    8.6370    1.3249 C   0  0  0  0  0  0  0  0  0  0  0  0
    5.4170    7.1447    1.2779 C   0  0  0  0  0  0  0  0  0  0  0  0
    5.7774    6.4881    2.2918 O   0  0  0  0  0  0  0  0  0  0  0  0
    4.9777    6.4643    0.0898 N   0  0  0  0  0  0  0  0  0  0  0  0
    4.7946    5.0100    0.0368 C   0  0  1  0  0  0  0  0  0  0  0  0
    3.5446    4.5828    0.8177 C   0  0  0  0  0  0  0  0  0  0  0  0
    2.0318    5.4732    0.2736 S   0  0  0  0  0  0  0  0  0  0  0  0
    0.9027    4.7347    1.5103 C   0  0  0  0  0  0  0  0  0  0  0  0
   -0.1149    3.8755    0.8115 C   0  0  0  0  0  0  0  0  0  0  0  0
    0.1545    2.5255    0.5565 C   0  0  0  0  0  0  0  0  0  0  0  0
   -0.7793    1.7310   -0.1366 C   0  0  0  0  0  0  0  0  0  0  0  0
   -1.9610    2.3171   -0.6176 C   0  0  0  0  0  0  0  0  0  0  0  0
   -2.2302    3.6742   -0.3813 C   0  0  0  0  0  0  0  0  0  0  0  0
   -1.3118    4.4430    0.3499 C   0  0  0  0  0  0  0  0  0  0  0  0
   -3.5004    4.2965   -0.8829 C   0  0  0  0  0  0  0  0  0  0  0  0
   -4.8378    4.0072    0.3359 S   0  0  0  0  0  0  0  0  0  0  0  0
   -5.7713    5.5789    0.1030 C   0  0  0  0  0  0  0  0  0  0  0  0
   -7.2289    5.4048   -0.3788 C   0  0  1  0  0  0  0  0  0  0  0  0
   -7.3858    4.7052   -1.7066 C   0  0  0  0  0  0  0  0  0  0  0  0
   -8.6712    4.6228   -2.3247 N   0  0  0  0  0  0  0  0  0  0  0  0
   -6.3866    4.2302   -2.3112 O   0  0  0  0  0  0  0  0  0  0  0  0
   -8.1109    4.8182    0.6442 N   0  0  0  0  0  0  0  0  0  0  0  0
   -7.9105    3.5547    1.2898 C   0  0  0  0  0  0  0  0  0  0  0  0
   -7.1126    3.4765    2.2598 O   0  0  0  0  0  0  0  0  0  0  0  0
   -8.6765    2.3189    0.8703 C   0  0  1  0  0  0  0  0  0  0  0  0
  -10.1315    2.6660    0.5245 C   0  0  0  0  0  0  0  0  0  0  0  0
   -8.0064    1.6646   -0.2644 N   0  0  0  0  0  0  0  0  0  0  0  0
   -8.2215    0.3077   -0.6955 C   0  0  0  0  0  0  0  0  0  0  0  0
   -7.5683   -0.1158   -1.6868 O   0  0  0  0  0  0  0  0  0  0  0  0
   -9.1793   -0.6419   -0.0147 C   0  0  1  0  0  0  0  0  0  0  0  0
  -10.3285   -0.9738   -0.9839 C   0  0  0  0  0  0  0  0  0  0  0  0
   -8.4323   -1.8282    0.4293 N   0  0  0  0  0  0  0  0  0  0  0  0
   -8.6893   -3.1851    0.0303 C   0  0  0  0  0  0  0  0  0  0  0  0
   -9.8640   -3.6396    0.0706 O   0  0  0  0  0  0  0  0  0  0  0  0
   -7.5528   -4.1002   -0.3603 C   0  0  1  0  0  0  0  0  0  0  0  0
   -7.9123   -4.8922   -1.6200 C   0  0  0  0  0  0  0  0  0  0  0  0
   -6.3312   -3.3282   -0.6119 N   0  0  0  0  0  0  0  0  0  0  0  0
   -5.2240   -3.2779    0.3005 C   0  0  0  0  0  0  0  0  0  0  0  0
   -4.7222   -2.1541    0.5736 O   0  0  0  0  0  0  0  0  0  0  0  0
   -4.6829   -4.5231    0.9671 C   0  0  1  0  0  0  0  0  0  0  0  0
   -4.4974   -5.6923   -0.0079 C   0  0  0  0  0  0  0  0  0  0  0  0
   -3.4414   -4.2537    1.7144 N   0  0  0  0  0  0  0  0  0  0  0  0
   -2.1680   -3.8157    1.1996 C   0  0  0  0  0  0  0  0  0  0  0  0
   -1.2259   -3.6389    2.0227 O   0  0  0  0  0  0  0  0  0  0  0  0
   -1.8865   -3.5899   -0.2761 C   0  0  1  0  0  0  0  0  0  0  0  0
   -1.0104   -2.3421   -0.5028 C   0  0  0  0  0  0  0  0  0  0  0  0
   -1.8408   -0.8088    0.0361 S   0  0  0  0  0  0  0  0  0  0  0  0
   -0.4581    0.2929   -0.4550 C   0  0  0  0  0  0  0  0  0  0  0  0
   -1.2190   -4.7435   -0.8978 N   0  0  0  0  0  0  0  0  0  0  0  0
   -0.6123   -5.8211   -0.1740 C   0  0  0  0  0  0  0  0  0  0  0  0
   -1.3340   -6.5943    0.5176 O   0  0  0  0  0  0  0  0  0  0  0  0
    0.8548   -6.1239   -0.3234 C   0  0  1  0  0  0  0  0  0  0  0  0
    1.1173   -6.9036   -1.6125 C   0  0  0  0  0  0  0  0  0  0  0  0
    1.6361   -4.8853   -0.3224 N   0  0  0  0  0  0  0  0  0  0  0  0
    2.3415   -4.4382    0.8386 C   0  0  0  0  0  0  0  0  0  0  0  0
    1.8576   -3.4980    1.5246 O   0  0  0  0  0  0  0  0  0  0  0  0
    3.6943   -4.9922    1.2062 C   0  0  1  0  0  0  0  0  0  0  0  0
    3.6035   -6.4317    1.7054 C   0  0  0  0  0  0  0  0  0  0  0  0
    4.6107   -4.9203    0.0608 N   0  0  0  0  0  0  0  0  0  0  0  0
    6.0405   -4.8322    0.1956 C   0  0  0  0  0  0  0  0  0  0  0  0
    6.7624   -5.2196   -0.7636 O   0  0  0  0  0  0  0  0  0  0  0  0
    6.6852   -4.2913    1.4560 C   0  0  1  0  0  0  0  0  0  0  0  0
    8.1982   -4.5303    1.5372 C   0  0  0  0  0  0  0  0  0  0  0  0
    6.3403   -2.8767    1.6674 N   0  0  0  0  0  0  0  0  0  0  0  0
    6.5173   -1.7828    0.7437 C   0  0  0  0  0  0  0  0  0  0  0  0
    5.9057   -0.7060    0.9750 O   0  0  0  0  0  0  0  0  0  0  0  0
    7.4951   -1.8188   -0.4012 C   0  0  1  0  0  0  0  0  0  0  0  0
    6.9395   -1.1116   -1.6515 C   0  0  0  0  0  0  0  0  0  0  0  0
    8.7932   -1.2967    0.0556 N   0  0  0  0  0  0  0  0  0  0  0  0
    9.5127   -0.1906   -0.5055 C   0  0  0  0  0  0  0  0  0  0  0  0
   10.6999   -0.3692   -0.8971 O   0  0  0  0  0  0  0  0  0  0  0  0
    8.9201    1.1960   -0.5450 C   0  0  1  0  0  0  0  0  0  0  0  0
    9.8078    2.1578    0.2484 C   0  0  0  0  0  0  0  0  0  0  0  0
    8.8073    1.6422   -1.9409 N   0  0  0  0  0  0  0  0  0  0  0  0
    7.9530    2.6942   -2.4235 C   0  0  0  0  0  0  0  0  0  0  0  0
    7.9063    2.9003   -3.6672 O   0  0  0  0  0  0  0  0  0  0  0  0
    7.1567    3.6066   -1.5116 C   0  0  1  0  0  0  0  0  0  0  0  0
    7.8182    4.9927   -1.5253 C   0  0  0  0  0  0  0  0  0  0  0  0
    5.7635    3.6901   -1.9795 N   0  0  0  0  0  0  0  0  0  0  0  0
    4.7479    4.5355   -1.4023 C   0  0  0  0  0  0  0  0  0  0  0  0
    3.7969    4.9105   -2.1471 O   0  0  0  0  0  0  0  0  0  0  0  0
    4.8441    9.0002    2.1659 H   0  0  0  0  0  0  0  0  0  0  0  0
    5.0933    9.0804    0.3805 H   0  0  0  0  0  0  0  0  0  0  0  0
    6.5207    8.9797    1.4847 H   0  0  0  0  0  0  0  0  0  0  0  0
    4.8236    7.0355   -0.7715 H   0  0  0  0  0  0  0  0  0  0  0  0
    5.6561    4.5312    0.5397 H   0  0  0  0  0  0  0  0  0  0  0  0
    3.3871    3.4842    0.7042 H   0  0  0  0  0  0  0  0  0  0  0  0
    3.7024    4.7947    1.9015 H   0  0  0  0  0  0  0  0  0  0  0  0
    0.3953    5.5645    2.0459 H   0  0  0  0  0  0  0  0  0  0  0  0
    1.4466    4.1418    2.2735 H   0  0  0  0  0  0  0  0  0  0  0  0
    1.0843    2.0918    0.9045 H   0  0  0  0  0  0  0  0  0  0  0  0
   -2.6690    1.7270   -1.1814 H   0  0  0  0  0  0  0  0  0  0  0  0
   -1.5210    5.4863    0.5456 H   0  0  0  0  0  0  0  0  0  0  0  0
   -3.3256    5.3764   -1.0699 H   0  0  0  0  0  0  0  0  0  0  0  0
   -3.7981    3.8325   -1.8496 H   0  0  0  0  0  0  0  0  0  0  0  0
   -5.2544    6.2521   -0.6146 H   0  0  0  0  0  0  0  0  0  0  0  0
   -5.7794    6.1102    1.0808 H   0  0  0  0  0  0  0  0  0  0  0  0
   -7.5934    6.4415   -0.5570 H   0  0  0  0  0  0  0  0  0  0  0  0
   -9.5058    5.0692   -1.8851 H   0  0  0  0  0  0  0  0  0  0  0  0
   -8.7760    4.1753   -3.2581 H   0  0  0  0  0  0  0  0  0  0  0  0
   -8.9742    5.3464    0.8976 H   0  0  0  0  0  0  0  0  0  0  0  0
   -8.6746    1.6245    1.7367 H   0  0  0  0  0  0  0  0  0  0  0  0
  -10.6354    3.0782    1.4237 H   0  0  0  0  0  0  0  0  0  0  0  0
  -10.6880    1.7662    0.2013 H   0  0  0  0  0  0  0  0  0  0  0  0
  -10.1882    3.4147   -0.2846 H   0  0  0  0  0  0  0  0  0  0  0  0
   -7.2416    2.1812   -0.7530 H   0  0  0  0  0  0  0  0  0  0  0  0
   -9.6376   -0.1821    0.8822 H   0  0  0  0  0  0  0  0  0  0  0  0
  -11.1338   -1.5198   -0.4556 H   0  0  0  0  0  0  0  0  0  0  0  0
   -9.9659   -1.5790   -1.8433 H   0  0  0  0  0  0  0  0  0  0  0  0
  -10.7741   -0.0403   -1.3864 H   0  0  0  0  0  0  0  0  0  0  0  0
   -7.5979   -1.6604    1.0393 H   0  0  0  0  0  0  0  0  0  0  0  0
   -7.3987   -4.8173    0.4729 H   0  0  0  0  0  0  0  0  0  0  0  0
   -7.0761   -5.5570   -1.9144 H   0  0  0  0  0  0  0  0  0  0  0  0
   -8.8090   -5.5241   -1.4425 H   0  0  0  0  0  0  0  0  0  0  0  0
   -8.1196   -4.1964   -2.4639 H   0  0  0  0  0  0  0  0  0  0  0  0
   -6.3624   -2.6064   -1.3675 H   0  0  0  0  0  0  0  0  0  0  0  0
   -5.4489   -4.8425    1.7076 H   0  0  0  0  0  0  0  0  0  0  0  0
   -5.4827   -6.1241   -0.2812 H   0  0  0  0  0  0  0  0  0  0  0  0
   -3.9197   -6.5024    0.4826 H   0  0  0  0  0  0  0  0  0  0  0  0
   -3.9829   -5.3789   -0.9362 H   0  0  0  0  0  0  0  0  0  0  0  0
   -3.4895   -4.4134    2.7458 H   0  0  0  0  0  0  0  0  0  0  0  0
   -2.8324   -3.4107   -0.8222 H   0  0  0  0  0  0  0  0  0  0  0  0
   -0.7818   -2.2559   -1.5899 H   0  0  0  0  0  0  0  0  0  0  0  0
   -0.0477   -2.4542    0.0334 H   0  0  0  0  0  0  0  0  0  0  0  0
    0.4590   -0.0337    0.0907 H   0  0  0  0  0  0  0  0  0  0  0  0
   -0.2661    0.1969   -1.5494 H   0  0  0  0  0  0  0  0  0  0  0  0
   -0.9919   -4.6722   -1.9166 H   0  0  0  0  0  0  0  0  0  0  0  0
    1.1535   -6.7650    0.5284 H   0  0  0  0  0  0  0  0  0  0  0  0
    2.2041   -7.1073   -1.7154 H   0  0  0  0  0  0  0  0  0  0  0  0
    0.5782   -7.8769   -1.5859 H   0  0  0  0  0  0  0  0  0  0  0  0
    0.7738   -6.3258   -2.4982 H   0  0  0  0  0  0  0  0  0  0  0  0
    1.4765   -4.1952   -1.0909 H   0  0  0  0  0  0  0  0  0  0  0  0
    4.0813   -4.3693    2.0383 H   0  0  0  0  0  0  0  0  0  0  0  0
    2.8355   -6.5141    2.5006 H   0  0  0  0  0  0  0  0  0  0  0  0
    4.5805   -6.7415    2.1294 H   0  0  0  0  0  0  0  0  0  0  0  0
    3.3671   -7.1202    0.8704 H   0  0  0  0  0  0  0  0  0  0  0  0
    4.2431   -5.2086   -0.8759 H   0  0  0  0  0  0  0  0  0  0  0  0
    6.2693   -4.8730    2.3091 H   0  0  0  0  0  0  0  0  0  0  0  0
    8.6142   -4.0308    2.4371 H   0  0  0  0  0  0  0  0  0  0  0  0
    8.7393   -4.1737    0.6396 H   0  0  0  0  0  0  0  0  0  0  0  0
    8.3922   -5.6257    1.6239 H   0  0  0  0  0  0  0  0  0  0  0  0
    5.7960   -2.6590    2.5312 H   0  0  0  0  0  0  0  0  0  0  0  0
    7.6543   -2.8586   -0.7303 H   0  0  0  0  0  0  0  0  0  0  0  0
    6.6051   -0.0770   -1.4350 H   0  0  0  0  0  0  0  0  0  0  0  0
    7.7057   -1.0902   -2.4569 H   0  0  0  0  0  0  0  0  0  0  0  0
    6.0603   -1.6751   -2.0332 H   0  0  0  0  0  0  0  0  0  0  0  0
    9.3291   -1.8958    0.7195 H   0  0  0  0  0  0  0  0  0  0  0  0
    7.9191    1.1650   -0.0675 H   0  0  0  0  0  0  0  0  0  0  0  0
    9.9913    1.7546    1.2666 H   0  0  0  0  0  0  0  0  0  0  0  0
   10.7859    2.3041   -0.2615 H   0  0  0  0  0  0  0  0  0  0  0  0
    9.3192    3.1477    0.3583 H   0  0  0  0  0  0  0  0  0  0  0  0
    9.3903    1.1577   -2.6614 H   0  0  0  0  0  0  0  0  0  0  0  0
    7.1523    3.2153   -0.4799 H   0  0  0  0  0  0  0  0  0  0  0  0
    7.7023    5.4664   -2.5241 H   0  0  0  0  0  0  0  0  0  0  0  0
    8.9051    4.9034   -1.3032 H   0  0  0  0  0  0  0  0  0  0  0  0
    7.3775    5.6597   -0.7630 H   0  0  0  0  0  0  0  0  0  0  0  0
    5.4998    3.2042   -2.8674 H   0  0  0  0  0  0  0  0  0  0  0  0
  1  2  1  0
  2  3  2  0
  2  4  1  0
  4  5  1  0
  5  6  1  0
  6  7  1  0
  7  8  1  0
  8  9  1  0
  9 10  2  0
 10 11  1  0
 11 12  2  0
 12 13  1  0
 13 14  2  0
 13 15  1  0
 15 16  1  0
 16 17  1  0
 17 18  1  0
 18 19  1  0
 19 20  1  0
 19 21  2  0
 18 22  1  0
 22 23  1  0
 23 24  2  0
 23 25  1  0
 25 26  1  0
 25 27  1  0
 27 28  1  0
 28 29  2  0
 28 30  1  0
 30 31  1  0
 30 32  1  0
 32 33  1  0
 33 34  2  0
 33 35  1  0
 35 36  1  0
 35 37  1  0
 37 38  1  0
 38 39  2  0
 38 40  1  0
 40 41  1  0
 40 42  1  0
 42 43  1  0
 43 44  2  0
 43 45  1  0
 45 46  1  0
 46 47  1  0
 47 48  1  0
 45 49  1  0
 49 50  1  0
 50 51  2  0
 50 52  1  0
 52 53  1  0
 52 54  1  0
 54 55  1  0
 55 56  2  0
 55 57  1  0
 57 58  1  0
 57 59  1  0
 59 60  1  0
 60 61  2  0
 60 62  1  0
 62 63  1  0
 62 64  1  0
 64 65  1  0
 65 66  2  0
 65 67  1  0
 67 68  1  0
 67 69  1  0
 69 70  1  0
 70 71  2  0
 70 72  1  0
 72 73  1  0
 72 74  1  0
 74 75  1  0
 75 76  2  0
 75 77  1  0
 77 78  1  0
 77 79  1  0
 79 80  1  0
 80 81  2  0
 80  5  1  0
 14  9  1  0
 48 11  1  0
  1 82  1  0
  1 83  1  0
  1 84  1  0
  4 85  1  0
  5 86  1  1
  6 87  1  0
  6 88  1  0
  8 89  1  0
  8 90  1  0
 10 91  1  0
 12 92  1  0
 14 93  1  0
 15 94  1  0
 15 95  1  0
 17 96  1  0
 17 97  1  0
 18 98  1  6
 20 99  1  0
 20100  1  0
 22101  1  0
 25102  1  1
 26103  1  0
 26104  1  0
 26105  1  0
 27106  1  0
 30107  1  1
 31108  1  0
 31109  1  0
 31110  1  0
 32111  1  0
 35112  1  1
 36113  1  0
 36114  1  0
 36115  1  0
 37116  1  0
 40117  1  1
 41118  1  0
 41119  1  0
 41120  1  0
 42121  1  0
 45122  1  6
 46123  1  0
 46124  1  0
 48125  1  0
 48126  1  0
 49127  1  0
 52128  1  1
 53129  1  0
 53130  1  0
 53131  1  0
 54132  1  0
 57133  1  1
 58134  1  0
 58135  1  0
 58136  1  0
 59137  1  0
 62138  1  1
 63139  1  0
 63140  1  0
 63141  1  0
 64142  1  0
 67143  1  6
 68144  1  0
 68145  1  0
 68146  1  0
 69147  1  0
 72148  1  1
 73149  1  0
 73150  1  0
 73151  1  0
 74152  1  0
 77153  1  1
 78154  1  0
 78155  1  0
 78156  1  0
 79157  1  0
M  END
