
     RDKit          3D

157159  0  0  0  0  0  0  0  0999 V2000
   -4.9450    7.9471   -0.5342 C   0  0  0  0  0  0  0  0  0  0  0  0
   -4.8338    7.1356   -1.7886 C   0  0  0  0  0  0  0  0  0  0  0  0
   -5.4164    7.5414   -2.8327 O   0  0  0  0  0  0  0  0  0  0  0  0
   -4.0636    5.9266   -1.8377 N   0  0  0  0  0  0  0  0  0  0  0  0
   -3.6299    5.1945   -0.6403 C   0  0  2  0  0  0  0  0  0  0  0  0
   -2.6187    4.0913   -1.0063 C   0  0  0  0  0  0  0  0  0  0  0  0
   -1.0019    4.8232   -1.4525 S   0  0  0  0  0  0  0  0  0  0  0  0
   -0.3242    4.9417    0.2456 C   0  0  0  0  0  0  0  0  0  0  0  0
    0.6921    3.8505    0.4589 C   0  0  0  0  0  0  0  0  0  0  0  0
    2.0424    4.0712    0.1607 C   0  0  0  0  0  0  0  0  0  0  0  0
    2.9851    3.0483    0.3278 C   0  0  0  0  0  0  0  0  0  0  0  0
    2.5836    1.8164    0.8595 C   0  0  0  0  0  0  0  0  0  0  0  0
    1.2344    1.5821    1.1878 C   0  0  0  0  0  0  0  0  0  0  0  0
    0.2968    2.6014    0.9620 C   0  0  0  0  0  0  0  0  0  0  0  0
    0.7343    0.2668    1.7458 C   0  0  0  0  0  0  0  0  0  0  0  0
    2.0566   -0.8253    2.3914 S   0  0  0  0  0  0  0  0  0  0  0  0
    2.1600   -1.8912    0.9068 C   0  0  0  0  0  0  0  0  0  0  0  0
    1.1350   -3.0425    0.9825 C   0  0  1  0  0  0  0  0  0  0  0  0
    0.8257   -3.5882   -0.3457 N   0  0  0  0  0  0  0  0  0  0  0  0
   -0.2381   -4.5191   -0.6378 C   0  0  0  0  0  0  0  0  0  0  0  0
   -0.4894   -4.7623   -1.8465 O   0  0  0  0  0  0  0  0  0  0  0  0
   -0.9989   -5.2814    0.4370 C   0  0  1  0  0  0  0  0  0  0  0  0
   -1.8739   -4.3879    1.3395 C   0  0  0  0  0  0  0  0  0  0  0  0
   -1.7781   -6.3928   -0.1340 N   0  0  0  0  0  0  0  0  0  0  0  0
   -3.0330   -6.3198   -0.8476 C   0  0  0  0  0  0  0  0  0  0  0  0
   -3.6240   -7.3972   -1.1291 O   0  0  0  0  0  0  0  0  0  0  0  0
   -3.6746   -5.0147   -1.2590 C   0  0  1  0  0  0  0  0  0  0  0  0
   -4.1321   -5.0260   -2.7237 C   0  0  0  0  0  0  0  0  0  0  0  0
   -4.7763   -4.6749   -0.3511 N   0  0  0  0  0  0  0  0  0  0  0  0
   -6.0967   -5.2324   -0.3981 C   0  0  0  0  0  0  0  0  0  0  0  0
   -6.3169   -6.2942   -1.0408 O   0  0  0  0  0  0  0  0  0  0  0  0
   -7.2462   -4.5794    0.3311 C   0  0  1  0  0  0  0  0  0  0  0  0
   -7.4776   -5.2889    1.6652 C   0  0  0  0  0  0  0  0  0  0  0  0
   -7.0011   -3.1466    0.5450 N   0  0  0  0  0  0  0  0  0  0  0  0
   -6.9028   -2.2254   -0.5492 C   0  0  0  0  0  0  0  0  0  0  0  0
   -5.8262   -2.1297   -1.1898 O   0  0  0  0  0  0  0  0  0  0  0  0
   -8.0629   -1.3617   -0.9432 C   0  0  1  0  0  0  0  0  0  0  0  0
   -8.9100   -2.0446   -2.0182 C   0  0  0  0  0  0  0  0  0  0  0  0
   -8.8919   -1.0526    0.2267 N   0  0  0  0  0  0  0  0  0  0  0  0
   -8.9848    0.2207    0.8984 C   0  0  0  0  0  0  0  0  0  0  0  0
   -9.7977    0.3295    1.8561 O   0  0  0  0  0  0  0  0  0  0  0  0
   -8.1268    1.4273    0.5536 C   0  0  1  0  0  0  0  0  0  0  0  0
   -6.6310    1.1292    0.7311 C   0  0  0  0  0  0  0  0  0  0  0  0
   -8.4387    1.9299   -0.7937 N   0  0  0  0  0  0  0  0  0  0  0  0
   -8.0917    3.2104   -1.3661 C   0  0  0  0  0  0  0  0  0  0  0  0
   -8.5247    3.4689   -2.5223 O   0  0  0  0  0  0  0  0  0  0  0  0
   -7.2341    4.2673   -0.6918 C   0  0  1  0  0  0  0  0  0  0  0  0
   -7.7670    4.7153    0.6785 C   0  0  0  0  0  0  0  0  0  0  0  0
   -5.8185    3.8686   -0.6836 N   0  0  0  0  0  0  0  0  0  0  0  0
   -4.8276    4.5999    0.0561 C   0  0  0  0  0  0  0  0  0  0  0  0
   -4.9393    4.7316    1.3055 O   0  0  0  0  0  0  0  0  0  0  0  0
    1.6426   -4.1193    1.9139 C   0  0  0  0  0  0  0  0  0  0  0  0
    1.3126   -4.0732    3.1313 O   0  0  0  0  0  0  0  0  0  0  0  0
    2.4234   -5.2362    1.4459 N   0  0  0  0  0  0  0  0  0  0  0  0
    3.5129   -5.1238    0.4723 C   0  0  2  0  0  0  0  0  0  0  0  0
    3.5124   -6.3648   -0.4261 C   0  0  0  0  0  0  0  0  0  0  0  0
    4.8202   -4.9913    1.2004 C   0  0  0  0  0  0  0  0  0  0  0  0
    5.0772   -5.7565    2.1663 O   0  0  0  0  0  0  0  0  0  0  0  0
    5.7663   -3.9793    0.8400 N   0  0  0  0  0  0  0  0  0  0  0  0
    6.4896   -4.0802   -0.4391 C   0  0  2  0  0  0  0  0  0  0  0  0
    7.5823   -5.1510   -0.3127 C   0  0  0  0  0  0  0  0  0  0  0  0
    7.1082   -2.7636   -0.8508 C   0  0  0  0  0  0  0  0  0  0  0  0
    7.6917   -2.6985   -1.9705 O   0  0  0  0  0  0  0  0  0  0  0  0
    7.0472   -1.5896   -0.0170 N   0  0  0  0  0  0  0  0  0  0  0  0
    8.0871   -0.5465   -0.0679 C   0  0  2  0  0  0  0  0  0  0  0  0
    9.4704   -1.1577    0.1866 C   0  0  0  0  0  0  0  0  0  0  0  0
    7.8274    0.5294    0.9642 C   0  0  0  0  0  0  0  0  0  0  0  0
    7.3408    0.1972    2.0793 O   0  0  0  0  0  0  0  0  0  0  0  0
    8.1525    1.9146    0.7475 N   0  0  0  0  0  0  0  0  0  0  0  0
    9.1548    2.4061   -0.2087 C   0  0  2  0  0  0  0  0  0  0  0  0
   10.3998    2.8900    0.5318 C   0  0  0  0  0  0  0  0  0  0  0  0
    8.5916    3.4967   -1.0909 C   0  0  0  0  0  0  0  0  0  0  0  0
    9.1612    3.7351   -2.1900 O   0  0  0  0  0  0  0  0  0  0  0  0
    7.4268    4.2601   -0.7412 N   0  0  0  0  0  0  0  0  0  0  0  0
    7.4216    5.2010    0.3862 C   0  0  1  0  0  0  0  0  0  0  0  0
    8.0316    6.5144   -0.0326 C   0  0  0  0  0  0  0  0  0  0  0  0
    8.5978    7.3868    0.9505 N   0  0  0  0  0  0  0  0  0  0  0  0
    7.9603    6.8902   -1.2305 O   0  0  0  0  0  0  0  0  0  0  0  0
    5.9914    5.4384    0.8971 C   0  0  0  0  0  0  0  0  0  0  0  0
    5.2505    3.9063    1.5705 S   0  0  0  0  0  0  0  0  0  0  0  0
    4.4353    3.3063    0.0445 C   0  0  0  0  0  0  0  0  0  0  0  0
   -5.5659    8.8545   -0.7059 H   0  0  0  0  0  0  0  0  0  0  0  0
   -5.4225    7.3465    0.2686 H   0  0  0  0  0  0  0  0  0  0  0  0
   -3.9316    8.2603   -0.2081 H   0  0  0  0  0  0  0  0  0  0  0  0
   -3.9287    5.4826   -2.7789 H   0  0  0  0  0  0  0  0  0  0  0  0
   -3.1311    5.9005    0.0590 H   0  0  0  0  0  0  0  0  0  0  0  0
   -2.9832    3.5028   -1.8714 H   0  0  0  0  0  0  0  0  0  0  0  0
   -2.4897    3.3727   -0.1694 H   0  0  0  0  0  0  0  0  0  0  0  0
    0.1578    5.9352    0.3725 H   0  0  0  0  0  0  0  0  0  0  0  0
   -1.1234    4.8782    1.0125 H   0  0  0  0  0  0  0  0  0  0  0  0
    2.3679    5.0357   -0.2090 H   0  0  0  0  0  0  0  0  0  0  0  0
    3.3347    1.0578    1.0188 H   0  0  0  0  0  0  0  0  0  0  0  0
   -0.7399    2.4243    1.2049 H   0  0  0  0  0  0  0  0  0  0  0  0
    0.0414    0.4776    2.5847 H   0  0  0  0  0  0  0  0  0  0  0  0
    0.1448   -0.2493    0.9608 H   0  0  0  0  0  0  0  0  0  0  0  0
    2.0035   -1.2804   -0.0031 H   0  0  0  0  0  0  0  0  0  0  0  0
    3.1979   -2.2771    0.8387 H   0  0  0  0  0  0  0  0  0  0  0  0
    0.2005   -2.6129    1.3953 H   0  0  0  0  0  0  0  0  0  0  0  0
    1.3772   -3.2356   -1.1660 H   0  0  0  0  0  0  0  0  0  0  0  0
   -0.2395   -5.7527    1.0926 H   0  0  0  0  0  0  0  0  0  0  0  0
   -2.2118   -3.4757    0.8074 H   0  0  0  0  0  0  0  0  0  0  0  0
   -1.3118   -4.0685    2.2395 H   0  0  0  0  0  0  0  0  0  0  0  0
   -2.7617   -4.9469    1.7078 H   0  0  0  0  0  0  0  0  0  0  0  0
   -1.3795   -7.3510   -0.0140 H   0  0  0  0  0  0  0  0  0  0  0  0
   -2.9256   -4.2015   -1.1971 H   0  0  0  0  0  0  0  0  0  0  0  0
   -4.7223   -4.1115   -2.9482 H   0  0  0  0  0  0  0  0  0  0  0  0
   -4.7515   -5.9150   -2.9618 H   0  0  0  0  0  0  0  0  0  0  0  0
   -3.2443   -5.0418   -3.3933 H   0  0  0  0  0  0  0  0  0  0  0  0
   -4.5813   -3.9476    0.3733 H   0  0  0  0  0  0  0  0  0  0  0  0
   -8.1668   -4.6942   -0.2831 H   0  0  0  0  0  0  0  0  0  0  0  0
   -7.6789   -6.3719    1.4999 H   0  0  0  0  0  0  0  0  0  0  0  0
   -6.5892   -5.1851    2.3295 H   0  0  0  0  0  0  0  0  0  0  0  0
   -8.3593   -4.8401    2.1795 H   0  0  0  0  0  0  0  0  0  0  0  0
   -6.5877   -2.8389    1.4591 H   0  0  0  0  0  0  0  0  0  0  0  0
   -7.6637   -0.4343   -1.3921 H   0  0  0  0  0  0  0  0  0  0  0  0
   -8.3000   -2.1985   -2.9345 H   0  0  0  0  0  0  0  0  0  0  0  0
   -9.2799   -3.0282   -1.6655 H   0  0  0  0  0  0  0  0  0  0  0  0
   -9.7748   -1.3945   -2.2719 H   0  0  0  0  0  0  0  0  0  0  0  0
   -9.4605   -1.8354    0.6220 H   0  0  0  0  0  0  0  0  0  0  0  0
   -8.4084    2.2011    1.2880 H   0  0  0  0  0  0  0  0  0  0  0  0
   -6.4706    0.3410    1.5018 H   0  0  0  0  0  0  0  0  0  0  0  0
   -6.0948    2.0290    1.0814 H   0  0  0  0  0  0  0  0  0  0  0  0
   -6.1601    0.7971   -0.2165 H   0  0  0  0  0  0  0  0  0  0  0  0
   -9.0607    1.3403   -1.3878 H   0  0  0  0  0  0  0  0  0  0  0  0
   -7.2962    5.1718   -1.3361 H   0  0  0  0  0  0  0  0  0  0  0  0
   -7.4387    5.7564    0.8870 H   0  0  0  0  0  0  0  0  0  0  0  0
   -8.8781    4.6956    0.6907 H   0  0  0  0  0  0  0  0  0  0  0  0
   -7.3800    4.0831    1.4968 H   0  0  0  0  0  0  0  0  0  0  0  0
   -5.4818    3.4305   -1.5675 H   0  0  0  0  0  0  0  0  0  0  0  0
    2.3899   -6.0965    2.0384 H   0  0  0  0  0  0  0  0  0  0  0  0
    3.3741   -4.2461   -0.1859 H   0  0  0  0  0  0  0  0  0  0  0  0
    2.5747   -6.3869   -1.0183 H   0  0  0  0  0  0  0  0  0  0  0  0
    3.5781   -7.2956    0.1803 H   0  0  0  0  0  0  0  0  0  0  0  0
    4.3646   -6.3341   -1.1368 H   0  0  0  0  0  0  0  0  0  0  0  0
    6.2905   -3.5530    1.6418 H   0  0  0  0  0  0  0  0  0  0  0  0
    5.7772   -4.3772   -1.2378 H   0  0  0  0  0  0  0  0  0  0  0  0
    7.1317   -6.1151    0.0041 H   0  0  0  0  0  0  0  0  0  0  0  0
    8.3310   -4.8412    0.4583 H   0  0  0  0  0  0  0  0  0  0  0  0
    8.1017   -5.3096   -1.2852 H   0  0  0  0  0  0  0  0  0  0  0  0
    6.2215   -1.4709    0.6134 H   0  0  0  0  0  0  0  0  0  0  0  0
    8.0668   -0.0904   -1.0788 H   0  0  0  0  0  0  0  0  0  0  0  0
    9.7615   -1.8353   -0.6468 H   0  0  0  0  0  0  0  0  0  0  0  0
    9.4701   -1.7302    1.1373 H   0  0  0  0  0  0  0  0  0  0  0  0
   10.2442   -0.3596    0.2518 H   0  0  0  0  0  0  0  0  0  0  0  0
    7.8662    2.5668    1.5044 H   0  0  0  0  0  0  0  0  0  0  0  0
    9.4850    1.5856   -0.8813 H   0  0  0  0  0  0  0  0  0  0  0  0
   11.1736    3.2192   -0.1957 H   0  0  0  0  0  0  0  0  0  0  0  0
   10.1584    3.7376    1.2046 H   0  0  0  0  0  0  0  0  0  0  0  0
   10.8195    2.0588    1.1415 H   0  0  0  0  0  0  0  0  0  0  0  0
    6.7719    4.4640   -1.5270 H   0  0  0  0  0  0  0  0  0  0  0  0
    8.0280    4.7931    1.2193 H   0  0  0  0  0  0  0  0  0  0  0  0
    8.9532    8.3279    0.6731 H   0  0  0  0  0  0  0  0  0  0  0  0
    8.6920    7.0838    1.9447 H   0  0  0  0  0  0  0  0  0  0  0  0
    6.0362    6.1605    1.7374 H   0  0  0  0  0  0  0  0  0  0  0  0
    5.3452    5.8772    0.1062 H   0  0  0  0  0  0  0  0  0  0  0  0
    4.9419    2.3689   -0.2690 H   0  0  0  0  0  0  0  0  0  0  0  0
    4.5340    4.0126   -0.8033 H   0  0  0  0  0  0  0  0  0  0  0  0
  1  2  1  0
  2  3  2  0
  2  4  1  0
  4  5  1  0
  5  6  1  0
  6  7  1  0
  7  8  1  0
  8  9  1  0
  9 10  2  0
 10 11  1  0
 11 12  2  0
 12 13  1  0
 13 14  2  0
 13 15  1  0
 15 16  1  0
 16 17  1  0
 17 18  1  0
 18 19  1  0
 19 20  1  0
 20 21  2  0
 20 22  1  0
 22 23  1  0
 22 24  1  0
 24 25  1  0
 25 26  2  0
 25 27  1  0
 27 28  1  0
 27 29  1  0
 29 30  1  0
 30 31  2  0
 30 32  1  0
 32 33  1  0
 32 34  1  0
 34 35  1  0
 35 36  2  0
 35 37  1  0
 37 38  1  0
 37 39  1  0
 39 40  1  0
 40 41  2  0
 40 42  1  0
 42 43  1  0
 42 44  1  0
 44 45  1  0
 45 46  2  0
 45 47  1  0
 47 48  1  0
 47 49  1  0
 49 50  1  0
 50 51  2  0
 18 52  1  0
 52 53  2  0
 52 54  1  0
 54 55  1  0
 55 56  1  0
 55 57  1  0
 57 58  2  0
 57 59  1  0
 59 60  1  0
 60 61  1  0
 60 62  1  0
 62 63  2  0
 62 64  1  0
 64 65  1  0
 65 66  1  0
 65 67  1  0
 67 68  2  0
 67 69  1  0
 69 70  1  0
 70 71  1  0
 70 72  1  0
 72 73  2  0
 72 74  1  0
 74 75  1  0
 75 76  1  0
 76 77  1  0
 76 78  2  0
 75 79  1  0
 79 80  1  0
 80 81  1  0
 50  5  1  0
 14  9  1  0
 81 11  1  0
  1 82  1  0
  1 83  1  0
  1 84  1  0
  4 85  1  0
  5 86  1  1
  6 87  1  0
  6 88  1  0
  8 89  1  0
  8 90  1  0
 10 91  1  0
 12 92  1  0
 14 93  1  0
 15 94  1  0
 15 95  1  0
 17 96  1  0
 17 97  1  0
 18 98  1  1
 19 99  1  0
 22100  1  1
 23101  1  0
 23102  1  0
 23103  1  0
 24104  1  0
 27105  1  6
 28106  1  0
 28107  1  0
 28108  1  0
 29109  1  0
 32110  1  6
 33111  1  0
 33112  1  0
 33113  1  0
 34114  1  0
 37115  1  6
 38116  1  0
 38117  1  0
 38118  1  0
 39119  1  0
 42120  1  1
 43121  1  0
 43122  1  0
 43123  1  0
 44124  1  0
 47125  1  6
 48126  1  0
 48127  1  0
 48128  1  0
 49129  1  0
 54130  1  0
 55131  1  6
 56132  1  0
 56133  1  0
 56134  1  0
 59135  1  0
 60136  1  6
 61137  1  0
 61138  1  0
 61139  1  0
 64140  1  0
 65141  1  6
 66142  1  0
 66143  1  0
 66144  1  0
 69145  1  0
 70146  1  6
 71147  1  0
 71148  1  0
 71149  1  0
 74150  1  0
 75151  1  1
 77152  1  0
 77153  1  0
 79154  1  0
 79155  1  0
 81156  1  0
 81157  1  0
M  END
