
     RDKit          3D

147149  0  0  0  0  0  0  0  0999 V2000
    3.4496    7.6080   -2.1145 C   0  0  0  0  0  0  0  0  0  0  0  0
    3.9651    6.4190   -1.3650 C   0  0  0  0  0  0  0  0  0  0  0  0
    5.0781    5.9269   -1.6891 O   0  0  0  0  0  0  0  0  0  0  0  0
    3.2039    5.8468   -0.2879 N   0  0  0  0  0  0  0  0  0  0  0  0
    3.5866    4.6066    0.4025 C   0  0  2  0  0  0  0  0  0  0  0  0
    2.4767    3.5518    0.2753 C   0  0  0  0  0  0  0  0  0  0  0  0
    2.0402    3.2450   -1.4779 S   0  0  0  0  0  0  0  0  0  0  0  0
    0.4245    4.1052   -1.4381 C   0  0  0  0  0  0  0  0  0  0  0  0
   -0.6358    3.4497   -0.5726 C   0  0  0  0  0  0  0  0  0  0  0  0
   -0.5795    2.0957   -0.1996 C   0  0  0  0  0  0  0  0  0  0  0  0
   -1.5862    1.5335    0.6061 C   0  0  0  0  0  0  0  0  0  0  0  0
   -2.6336    2.3476    1.0666 C   0  0  0  0  0  0  0  0  0  0  0  0
   -2.6973    3.6966    0.6995 C   0  0  0  0  0  0  0  0  0  0  0  0
   -1.7060    4.2350   -0.1320 C   0  0  0  0  0  0  0  0  0  0  0  0
   -3.8820    4.5224    1.1000 C   0  0  0  0  0  0  0  0  0  0  0  0
   -5.1400    4.4106   -0.2140 S   0  0  0  0  0  0  0  0  0  0  0  0
   -6.5883    4.7438    0.8599 C   0  0  0  0  0  0  0  0  0  0  0  0
   -7.9068    4.3340    0.1683 C   0  0  1  0  0  0  0  0  0  0  0  0
   -8.1917    5.2928   -0.9727 C   0  0  0  0  0  0  0  0  0  0  0  0
   -8.5364    6.6549   -0.7024 N   0  0  0  0  0  0  0  0  0  0  0  0
   -8.0637    4.9140   -2.1676 O   0  0  0  0  0  0  0  0  0  0  0  0
   -7.8588    2.9386   -0.3120 N   0  0  0  0  0  0  0  0  0  0  0  0
   -7.3092    1.8432    0.4411 C   0  0  0  0  0  0  0  0  0  0  0  0
   -7.3038    1.8930    1.7013 O   0  0  0  0  0  0  0  0  0  0  0  0
   -6.8478    0.5782   -0.2499 C   0  0  1  0  0  0  0  0  0  0  0  0
   -6.2879    0.8637   -1.6493 C   0  0  0  0  0  0  0  0  0  0  0  0
   -5.8041   -0.0785    0.5506 N   0  0  0  0  0  0  0  0  0  0  0  0
   -5.9048   -1.3486    1.2287 C   0  0  0  0  0  0  0  0  0  0  0  0
   -5.0330   -1.6288    2.0960 O   0  0  0  0  0  0  0  0  0  0  0  0
   -7.0009   -2.3618    0.9705 C   0  0  1  0  0  0  0  0  0  0  0  0
   -8.2703   -1.9782    1.7417 C   0  0  0  0  0  0  0  0  0  0  0  0
   -7.2722   -2.5193   -0.4649 N   0  0  0  0  0  0  0  0  0  0  0  0
   -6.3358   -3.0697   -1.4099 C   0  0  0  0  0  0  0  0  0  0  0  0
   -6.4954   -2.8050   -2.6342 O   0  0  0  0  0  0  0  0  0  0  0  0
   -5.2804   -4.0727   -0.9939 C   0  0  1  0  0  0  0  0  0  0  0  0
   -5.9368   -5.4377   -0.7739 C   0  0  0  0  0  0  0  0  0  0  0  0
   -4.2456   -4.1992   -2.0355 N   0  0  0  0  0  0  0  0  0  0  0  0
   -2.8611   -3.8075   -1.9438 C   0  0  0  0  0  0  0  0  0  0  0  0
   -2.2376   -3.5776   -3.0188 O   0  0  0  0  0  0  0  0  0  0  0  0
   -2.0938   -3.6508   -0.6424 C   0  0  1  0  0  0  0  0  0  0  0  0
   -2.4587   -2.3387    0.0749 C   0  0  0  0  0  0  0  0  0  0  0  0
   -1.3908   -0.9693   -0.5147 S   0  0  0  0  0  0  0  0  0  0  0  0
   -1.5483    0.0756    0.9818 C   0  0  0  0  0  0  0  0  0  0  0  0
   -2.2740   -4.8141    0.2334 N   0  0  0  0  0  0  0  0  0  0  0  0
   -1.2140   -5.6872    0.6575 C   0  0  0  0  0  0  0  0  0  0  0  0
   -1.4726   -6.9170    0.7831 O   0  0  0  0  0  0  0  0  0  0  0  0
    0.1921   -5.1933    0.9628 C   0  0  1  0  0  0  0  0  0  0  0  0
    0.1727   -4.0214    1.9498 C   0  0  0  0  0  0  0  0  0  0  0  0
    0.9793   -6.2827    1.5556 N   0  0  0  0  0  0  0  0  0  0  0  0
    2.3599   -6.5714    1.2575 C   0  0  0  0  0  0  0  0  0  0  0  0
    3.0880   -7.0441    2.1745 O   0  0  0  0  0  0  0  0  0  0  0  0
    2.9784   -6.3661   -0.1057 C   0  0  1  0  0  0  0  0  0  0  0  0
    2.1524   -7.0256   -1.2172 C   0  0  0  0  0  0  0  0  0  0  0  0
    3.2137   -4.9462   -0.3782 N   0  0  0  0  0  0  0  0  0  0  0  0
    4.2215   -4.2184    0.3423 C   0  0  0  0  0  0  0  0  0  0  0  0
    4.0996   -4.0649    1.5878 O   0  0  0  0  0  0  0  0  0  0  0  0
    5.4830   -3.7556   -0.3464 C   0  0  1  0  0  0  0  0  0  0  0  0
    6.3545   -4.9659   -0.6969 C   0  0  0  0  0  0  0  0  0  0  0  0
    5.1580   -3.0058   -1.5640 N   0  0  0  0  0  0  0  0  0  0  0  0
    5.3239   -1.5845   -1.6873 C   0  0  0  0  0  0  0  0  0  0  0  0
    4.3801   -0.9176   -2.1926 O   0  0  0  0  0  0  0  0  0  0  0  0
    6.5997   -0.8710   -1.2663 C   0  0  1  0  0  0  0  0  0  0  0  0
    7.8451   -1.6824   -1.6586 C   0  0  0  0  0  0  0  0  0  0  0  0
    6.6726    0.4508   -1.9063 N   0  0  0  0  0  0  0  0  0  0  0  0
    7.4717    1.5419   -1.4136 C   0  0  0  0  0  0  0  0  0  0  0  0
    7.9890    2.3354   -2.2475 O   0  0  0  0  0  0  0  0  0  0  0  0
    7.6950    1.7794    0.0653 C   0  0  1  0  0  0  0  0  0  0  0  0
    8.9713    1.0783    0.5366 C   0  0  0  0  0  0  0  0  0  0  0  0
    7.8297    3.2213    0.3225 N   0  0  0  0  0  0  0  0  0  0  0  0
    7.0315    4.0009    1.2311 C   0  0  0  0  0  0  0  0  0  0  0  0
    7.3030    5.2224    1.3754 O   0  0  0  0  0  0  0  0  0  0  0  0
    5.9144    3.4022    2.0601 C   0  0  1  0  0  0  0  0  0  0  0  0
    6.4818    2.6347    3.2591 C   0  0  0  0  0  0  0  0  0  0  0  0
    5.0283    4.4681    2.5418 N   0  0  0  0  0  0  0  0  0  0  0  0
    3.8413    4.9058    1.8607 C   0  0  0  0  0  0  0  0  0  0  0  0
    2.9889    5.5732    2.5060 O   0  0  0  0  0  0  0  0  0  0  0  0
    2.4567    7.9203   -1.7356 H   0  0  0  0  0  0  0  0  0  0  0  0
    4.1713    8.4450   -2.0099 H   0  0  0  0  0  0  0  0  0  0  0  0
    3.3550    7.3507   -3.1933 H   0  0  0  0  0  0  0  0  0  0  0  0
    2.3404    6.3418    0.0285 H   0  0  0  0  0  0  0  0  0  0  0  0
    4.5033    4.1921   -0.0671 H   0  0  0  0  0  0  0  0  0  0  0  0
    1.5915    3.8564    0.8671 H   0  0  0  0  0  0  0  0  0  0  0  0
    2.8438    2.5926    0.6933 H   0  0  0  0  0  0  0  0  0  0  0  0
    0.5940    5.1437   -1.0897 H   0  0  0  0  0  0  0  0  0  0  0  0
    0.0386    4.1750   -2.4727 H   0  0  0  0  0  0  0  0  0  0  0  0
    0.2276    1.4616   -0.5400 H   0  0  0  0  0  0  0  0  0  0  0  0
   -3.3991    1.9344    1.7076 H   0  0  0  0  0  0  0  0  0  0  0  0
   -1.7772    5.2794   -0.4331 H   0  0  0  0  0  0  0  0  0  0  0  0
   -4.2819    4.1484    2.0660 H   0  0  0  0  0  0  0  0  0  0  0  0
   -3.5879    5.5817    1.2490 H   0  0  0  0  0  0  0  0  0  0  0  0
   -6.5066    4.2040    1.8255 H   0  0  0  0  0  0  0  0  0  0  0  0
   -6.6027    5.8283    1.1072 H   0  0  0  0  0  0  0  0  0  0  0  0
   -8.7337    4.4171    0.9056 H   0  0  0  0  0  0  0  0  0  0  0  0
   -8.6100    7.0084    0.2794 H   0  0  0  0  0  0  0  0  0  0  0  0
   -8.7069    7.3089   -1.4974 H   0  0  0  0  0  0  0  0  0  0  0  0
   -8.4713    2.6829   -1.1266 H   0  0  0  0  0  0  0  0  0  0  0  0
   -7.7406   -0.0574   -0.3661 H   0  0  0  0  0  0  0  0  0  0  0  0
   -5.8705   -0.0696   -2.0866 H   0  0  0  0  0  0  0  0  0  0  0  0
   -7.0843    1.2253   -2.3304 H   0  0  0  0  0  0  0  0  0  0  0  0
   -5.4727    1.6236   -1.6043 H   0  0  0  0  0  0  0  0  0  0  0  0
   -4.9151    0.4555    0.6866 H   0  0  0  0  0  0  0  0  0  0  0  0
   -6.6791   -3.3463    1.3730 H   0  0  0  0  0  0  0  0  0  0  0  0
   -8.5684   -0.9305    1.5368 H   0  0  0  0  0  0  0  0  0  0  0  0
   -8.0834   -2.0768    2.8350 H   0  0  0  0  0  0  0  0  0  0  0  0
   -9.1052   -2.6489    1.4686 H   0  0  0  0  0  0  0  0  0  0  0  0
   -8.2005   -2.2120   -0.8398 H   0  0  0  0  0  0  0  0  0  0  0  0
   -4.8465   -3.7435   -0.0391 H   0  0  0  0  0  0  0  0  0  0  0  0
   -6.6969   -5.3835    0.0347 H   0  0  0  0  0  0  0  0  0  0  0  0
   -5.1716   -6.1901   -0.4803 H   0  0  0  0  0  0  0  0  0  0  0  0
   -6.4334   -5.7886   -1.7077 H   0  0  0  0  0  0  0  0  0  0  0  0
   -4.5703   -4.5120   -2.9787 H   0  0  0  0  0  0  0  0  0  0  0  0
   -1.0170   -3.5939   -0.9131 H   0  0  0  0  0  0  0  0  0  0  0  0
   -2.3527   -2.4727    1.1718 H   0  0  0  0  0  0  0  0  0  0  0  0
   -3.5032   -2.0297   -0.1328 H   0  0  0  0  0  0  0  0  0  0  0  0
   -2.4645   -0.1893    1.5510 H   0  0  0  0  0  0  0  0  0  0  0  0
   -0.6732   -0.1200    1.6350 H   0  0  0  0  0  0  0  0  0  0  0  0
   -3.2374   -5.1233    0.4792 H   0  0  0  0  0  0  0  0  0  0  0  0
    0.6604   -4.8448    0.0287 H   0  0  0  0  0  0  0  0  0  0  0  0
    1.1943   -3.8515    2.3546 H   0  0  0  0  0  0  0  0  0  0  0  0
   -0.1269   -3.0853    1.4378 H   0  0  0  0  0  0  0  0  0  0  0  0
   -0.5169   -4.2177    2.7958 H   0  0  0  0  0  0  0  0  0  0  0  0
    0.6051   -6.7086    2.4363 H   0  0  0  0  0  0  0  0  0  0  0  0
    3.9683   -6.8771   -0.1145 H   0  0  0  0  0  0  0  0  0  0  0  0
    2.0276   -8.1138   -1.0030 H   0  0  0  0  0  0  0  0  0  0  0  0
    1.1437   -6.5819   -1.3097 H   0  0  0  0  0  0  0  0  0  0  0  0
    2.6716   -6.9231   -2.1918 H   0  0  0  0  0  0  0  0  0  0  0  0
    2.8129   -4.5217   -1.2524 H   0  0  0  0  0  0  0  0  0  0  0  0
    6.0469   -3.1072    0.3602 H   0  0  0  0  0  0  0  0  0  0  0  0
    7.2884   -4.6383   -1.1964 H   0  0  0  0  0  0  0  0  0  0  0  0
    5.8164   -5.6523   -1.3839 H   0  0  0  0  0  0  0  0  0  0  0  0
    6.6274   -5.5215    0.2303 H   0  0  0  0  0  0  0  0  0  0  0  0
    4.6166   -3.4954   -2.3148 H   0  0  0  0  0  0  0  0  0  0  0  0
    6.5679   -0.7563   -0.1630 H   0  0  0  0  0  0  0  0  0  0  0  0
    8.0330   -2.4830   -0.9185 H   0  0  0  0  0  0  0  0  0  0  0  0
    8.7433   -1.0329   -1.6799 H   0  0  0  0  0  0  0  0  0  0  0  0
    7.7248   -2.1254   -2.6691 H   0  0  0  0  0  0  0  0  0  0  0  0
    6.4068    0.5032   -2.9155 H   0  0  0  0  0  0  0  0  0  0  0  0
    6.8409    1.3589    0.6266 H   0  0  0  0  0  0  0  0  0  0  0  0
    8.8582   -0.0208    0.4858 H   0  0  0  0  0  0  0  0  0  0  0  0
    9.1815    1.3490    1.5945 H   0  0  0  0  0  0  0  0  0  0  0  0
    9.8397    1.3932   -0.0793 H   0  0  0  0  0  0  0  0  0  0  0  0
    8.6023    3.7302   -0.1657 H   0  0  0  0  0  0  0  0  0  0  0  0
    5.3198    2.6941    1.4475 H   0  0  0  0  0  0  0  0  0  0  0  0
    7.0924    1.7722    2.9274 H   0  0  0  0  0  0  0  0  0  0  0  0
    5.6456    2.2487    3.8818 H   0  0  0  0  0  0  0  0  0  0  0  0
    7.1167    3.3001    3.8837 H   0  0  0  0  0  0  0  0  0  0  0  0
    5.2729    4.9513    3.4395 H   0  0  0  0  0  0  0  0  0  0  0  0
  1  2  1  0
  2  3  2  0
  2  4  1  0
  4  5  1  0
  5  6  1  0
  6  7  1  0
  7  8  1  0
  8  9  1  0
  9 10  2  0
 10 11  1  0
 11 12  2  0
 12 13  1  0
 13 14  2  0
 13 15  1  0
 15 16  1  0
 16 17  1  0
 17 18  1  0
 18 19  1  0
 19 20  1  0
 19 21  2  0
 18 22  1  0
 22 23  1  0
 23 24  2  0
 23 25  1  0
 25 26  1  0
 25 27  1  0
 27 28  1  0
 28 29  2  0
 28 30  1  0
 30 31  1  0
 30 32  1  0
 32 33  1  0
 33 34  2  0
 33 35  1  0
 35 36  1  0
 35 37  1  0
 37 38  1  0
 38 39  2  0
 38 40  1  0
 40 41  1  0
 41 42  1  0
 42 43  1  0
 40 44  1  0
 44 45  1  0
 45 46  2  0
 45 47  1  0
 47 48  1  0
 47 49  1  0
 49 50  1  0
 50 51  2  0
 50 52  1  0
 52 53  1  0
 52 54  1  0
 54 55  1  0
 55 56  2  0
 55 57  1  0
 57 58  1  0
 57 59  1  0
 59 60  1  0
 60 61  2  0
 60 62  1  0
 62 63  1  0
 62 64  1  0
 64 65  1  0
 65 66  2  0
 65 67  1  0
 67 68  1  0
 67 69  1  0
 69 70  1  0
 70 71  2  0
 70 72  1  0
 72 73  1  0
 72 74  1  0
 74 75  1  0
 75 76  2  0
 75  5  1  0
 14  9  1  0
 43 11  1  0
  1 77  1  0
  1 78  1  0
  1 79  1  0
  4 80  1  0
  5 81  1  6
  6 82  1  0
  6 83  1  0
  8 84  1  0
  8 85  1  0
 10 86  1  0
 12 87  1  0
 14 88  1  0
 15 89  1  0
 15 90  1  0
 17 91  1  0
 17 92  1  0
 18 93  1  1
 20 94  1  0
 20 95  1  0
 22 96  1  0
 25 97  1  6
 26 98  1  0
 26 99  1  0
 26100  1  0
 27101  1  0
 30102  1  1
 31103  1  0
 31104  1  0
 31105  1  0
 32106  1  0
 35107  1  1
 36108  1  0
 36109  1  0
 36110  1  0
 37111  1  0
 40112  1  6
 41113  1  0
 41114  1  0
 43115  1  0
 43116  1  0
 44117  1  0
 47118  1  6
 48119  1  0
 48120  1  0
 48121  1  0
 49122  1  0
 52123  1  1
 53124  1  0
 53125  1  0
 53126  1  0
 54127  1  0
 57128  1  1
 58129  1  0
 58130  1  0
 58131  1  0
 59132  1  0
 62133  1  1
 63134  1  0
 63135  1  0
 63136  1  0
 64137  1  0
 67138  1  1
 68139  1  0
 68140  1  0
 68141  1  0
 69142  1  0
 72143  1  6
 73144  1  0
 73145  1  0
 73146  1  0
 74147  1  0
M  END
