
     RDKit          3D

157159  0  0  0  0  0  0  0  0999 V2000
    5.8191   -7.6881    1.6688 C   0  0  0  0  0  0  0  0  0  0  0  0
    5.1949   -7.1378    0.4226 C   0  0  0  0  0  0  0  0  0  0  0  0
    4.8476   -7.9283   -0.4909 O   0  0  0  0  0  0  0  0  0  0  0  0
    4.9663   -5.7256    0.2885 N   0  0  0  0  0  0  0  0  0  0  0  0
    4.5213   -5.1303   -0.9762 C   0  0  1  0  0  0  0  0  0  0  0  0
    3.8261   -3.7813   -0.7332 C   0  0  0  0  0  0  0  0  0  0  0  0
    2.4112   -3.9478    0.4208 S   0  0  0  0  0  0  0  0  0  0  0  0
    1.0894   -4.1708   -0.8261 C   0  0  0  0  0  0  0  0  0  0  0  0
   -0.2145   -3.7590   -0.1996 C   0  0  0  0  0  0  0  0  0  0  0  0
   -1.1680   -4.7142    0.1761 C   0  0  0  0  0  0  0  0  0  0  0  0
   -2.3101   -4.3322    0.8965 C   0  0  0  0  0  0  0  0  0  0  0  0
   -2.5125   -2.9748    1.2003 C   0  0  0  0  0  0  0  0  0  0  0  0
   -1.5887   -1.9985    0.7909 C   0  0  0  0  0  0  0  0  0  0  0  0
   -0.4416   -2.4033    0.0887 C   0  0  0  0  0  0  0  0  0  0  0  0
   -1.7478   -0.5670    1.2299 C   0  0  0  0  0  0  0  0  0  0  0  0
   -3.3250    0.1488    0.6380 S   0  0  0  0  0  0  0  0  0  0  0  0
   -2.6306    1.3010   -0.6076 C   0  0  0  0  0  0  0  0  0  0  0  0
   -1.9882    2.5554    0.0215 C   0  0  1  0  0  0  0  0  0  0  0  0
   -1.3471    3.3755   -1.0089 N   0  0  0  0  0  0  0  0  0  0  0  0
   -0.2936    4.3285   -0.7779 C   0  0  0  0  0  0  0  0  0  0  0  0
    0.2196    4.8989   -1.7873 O   0  0  0  0  0  0  0  0  0  0  0  0
    0.2197    4.6806    0.6094 C   0  0  1  0  0  0  0  0  0  0  0  0
    0.9834    3.5388    1.3100 C   0  0  0  0  0  0  0  0  0  0  0  0
    1.0267    5.9131    0.5901 N   0  0  0  0  0  0  0  0  0  0  0  0
    2.3372    6.0950    0.0118 C   0  0  0  0  0  0  0  0  0  0  0  0
    2.8858    7.2265    0.1322 O   0  0  0  0  0  0  0  0  0  0  0  0
    3.0999    4.9938   -0.6979 C   0  0  1  0  0  0  0  0  0  0  0  0
    3.5876    5.4436   -2.0795 C   0  0  0  0  0  0  0  0  0  0  0  0
    4.2193    4.5237    0.1277 N   0  0  0  0  0  0  0  0  0  0  0  0
    5.4447    5.2448    0.2814 C   0  0  0  0  0  0  0  0  0  0  0  0
    5.4526    6.3373    0.9069 O   0  0  0  0  0  0  0  0  0  0  0  0
    6.7145    4.6716   -0.2769 C   0  0  1  0  0  0  0  0  0  0  0  0
    7.4692    5.7147   -1.1086 C   0  0  0  0  0  0  0  0  0  0  0  0
    7.5630    4.2002    0.8189 N   0  0  0  0  0  0  0  0  0  0  0  0
    7.9710    2.8330    1.0103 C   0  0  0  0  0  0  0  0  0  0  0  0
    9.0101    2.6016    1.6864 O   0  0  0  0  0  0  0  0  0  0  0  0
    7.1968    1.6669    0.4379 C   0  0  1  0  0  0  0  0  0  0  0  0
    7.8089    1.2526   -0.9096 C   0  0  0  0  0  0  0  0  0  0  0  0
    7.2004    0.5613    1.4082 N   0  0  0  0  0  0  0  0  0  0  0  0
    6.9380   -0.7983    1.0359 C   0  0  0  0  0  0  0  0  0  0  0  0
    5.7399   -1.1823    0.9345 O   0  0  0  0  0  0  0  0  0  0  0  0
    8.0657   -1.7644    0.7328 C   0  0  1  0  0  0  0  0  0  0  0  0
    9.3716   -1.3320    1.4096 C   0  0  0  0  0  0  0  0  0  0  0  0
    7.7148   -3.1093    1.2048 N   0  0  0  0  0  0  0  0  0  0  0  0
    7.9744   -4.3295    0.4896 C   0  0  0  0  0  0  0  0  0  0  0  0
    8.0961   -5.3954    1.1530 O   0  0  0  0  0  0  0  0  0  0  0  0
    8.0477   -4.3760   -1.0250 C   0  0  1  0  0  0  0  0  0  0  0  0
    8.5403   -5.7363   -1.5484 C   0  0  0  0  0  0  0  0  0  0  0  0
    6.7449   -4.0103   -1.5935 N   0  0  0  0  0  0  0  0  0  0  0  0
    5.7079   -4.9628   -1.8892 C   0  0  0  0  0  0  0  0  0  0  0  0
    5.7962   -5.6692   -2.9308 O   0  0  0  0  0  0  0  0  0  0  0  0
   -2.9483    3.3667    0.8694 C   0  0  0  0  0  0  0  0  0  0  0  0
   -2.8585    3.2531    2.1227 O   0  0  0  0  0  0  0  0  0  0  0  0
   -3.9021    4.3104    0.3399 N   0  0  0  0  0  0  0  0  0  0  0  0
   -4.4716    4.3097   -1.0131 C   0  0  2  0  0  0  0  0  0  0  0  0
   -4.7650    5.7457   -1.4545 C   0  0  0  0  0  0  0  0  0  0  0  0
   -5.7307    3.4683   -1.0912 C   0  0  0  0  0  0  0  0  0  0  0  0
   -5.7581    2.5037   -1.8999 O   0  0  0  0  0  0  0  0  0  0  0  0
   -6.9534    3.8365   -0.4319 N   0  0  0  0  0  0  0  0  0  0  0  0
   -7.1114    4.0660    1.0133 C   0  0  2  0  0  0  0  0  0  0  0  0
   -6.5043    2.9373    1.8657 C   0  0  0  0  0  0  0  0  0  0  0  0
   -8.5746    4.2487    1.3765 C   0  0  0  0  0  0  0  0  0  0  0  0
   -8.9322    5.3551    1.8694 O   0  0  0  0  0  0  0  0  0  0  0  0
   -9.5550    3.1949    1.2788 N   0  0  0  0  0  0  0  0  0  0  0  0
   -9.4552    2.0008    0.4253 C   0  0  2  0  0  0  0  0  0  0  0  0
  -10.5642    2.0254   -0.6285 C   0  0  0  0  0  0  0  0  0  0  0  0
   -9.5361    0.7355    1.2357 C   0  0  0  0  0  0  0  0  0  0  0  0
   -9.9523    0.7514    2.4215 O   0  0  0  0  0  0  0  0  0  0  0  0
   -9.2017   -0.5144    0.6251 N   0  0  0  0  0  0  0  0  0  0  0  0
   -7.8568   -1.0903    0.7403 C   0  0  2  0  0  0  0  0  0  0  0  0
   -6.9004   -0.4121   -0.2515 C   0  0  0  0  0  0  0  0  0  0  0  0
   -7.9131   -2.5874    0.5451 C   0  0  0  0  0  0  0  0  0  0  0  0
   -8.3907   -3.3043    1.4697 O   0  0  0  0  0  0  0  0  0  0  0  0
   -7.4711   -3.2085   -0.6727 N   0  0  0  0  0  0  0  0  0  0  0  0
   -6.7574   -4.4886   -0.6692 C   0  0  1  0  0  0  0  0  0  0  0  0
   -6.6050   -5.0003   -2.0839 C   0  0  0  0  0  0  0  0  0  0  0  0
   -7.1529   -6.2612   -2.4634 N   0  0  0  0  0  0  0  0  0  0  0  0
   -6.0043   -4.2948   -2.9431 O   0  0  0  0  0  0  0  0  0  0  0  0
   -5.3850   -4.3040   -0.0046 C   0  0  0  0  0  0  0  0  0  0  0  0
   -4.4334   -5.8706    0.0352 S   0  0  0  0  0  0  0  0  0  0  0  0
   -3.2874   -5.3749    1.3689 C   0  0  0  0  0  0  0  0  0  0  0  0
    6.0396   -6.8793    2.3945 H   0  0  0  0  0  0  0  0  0  0  0  0
    6.7687   -8.2028    1.4107 H   0  0  0  0  0  0  0  0  0  0  0  0
    5.1282   -8.4143    2.1441 H   0  0  0  0  0  0  0  0  0  0  0  0
    5.2156   -5.0970    1.0849 H   0  0  0  0  0  0  0  0  0  0  0  0
    3.7776   -5.8043   -1.4562 H   0  0  0  0  0  0  0  0  0  0  0  0
    4.5320   -3.0778   -0.2510 H   0  0  0  0  0  0  0  0  0  0  0  0
    3.5082   -3.3312   -1.6979 H   0  0  0  0  0  0  0  0  0  0  0  0
    1.0712   -5.2366   -1.1419 H   0  0  0  0  0  0  0  0  0  0  0  0
    1.2602   -3.5410   -1.7229 H   0  0  0  0  0  0  0  0  0  0  0  0
   -1.0057   -5.7545   -0.0679 H   0  0  0  0  0  0  0  0  0  0  0  0
   -3.3789   -2.6779    1.7832 H   0  0  0  0  0  0  0  0  0  0  0  0
    0.3046   -1.6651   -0.1952 H   0  0  0  0  0  0  0  0  0  0  0  0
   -1.7468   -0.5341    2.3387 H   0  0  0  0  0  0  0  0  0  0  0  0
   -0.8716    0.0267    0.8968 H   0  0  0  0  0  0  0  0  0  0  0  0
   -3.4377    1.5906   -1.3089 H   0  0  0  0  0  0  0  0  0  0  0  0
   -1.8657    0.7582   -1.2085 H   0  0  0  0  0  0  0  0  0  0  0  0
   -1.1967    2.1750    0.6841 H   0  0  0  0  0  0  0  0  0  0  0  0
   -1.6012    3.2066   -2.0107 H   0  0  0  0  0  0  0  0  0  0  0  0
   -0.6774    4.8932    1.2293 H   0  0  0  0  0  0  0  0  0  0  0  0
    1.3532    2.7768    0.5909 H   0  0  0  0  0  0  0  0  0  0  0  0
    1.8500    3.9336    1.8843 H   0  0  0  0  0  0  0  0  0  0  0  0
    0.3335    3.0314    2.0533 H   0  0  0  0  0  0  0  0  0  0  0  0
    0.6034    6.7492    1.0557 H   0  0  0  0  0  0  0  0  0  0  0  0
    2.4407    4.1268   -0.8843 H   0  0  0  0  0  0  0  0  0  0  0  0
    4.1537    4.6221   -2.5689 H   0  0  0  0  0  0  0  0  0  0  0  0
    4.2447    6.3319   -2.0003 H   0  0  0  0  0  0  0  0  0  0  0  0
    2.7191    5.7021   -2.7234 H   0  0  0  0  0  0  0  0  0  0  0  0
    4.0746    3.6763    0.7367 H   0  0  0  0  0  0  0  0  0  0  0  0
    6.4475    3.8427   -0.9638 H   0  0  0  0  0  0  0  0  0  0  0  0
    8.3849    5.2598   -1.5333 H   0  0  0  0  0  0  0  0  0  0  0  0
    7.7659    6.5778   -0.4775 H   0  0  0  0  0  0  0  0  0  0  0  0
    6.8306    6.0773   -1.9427 H   0  0  0  0  0  0  0  0  0  0  0  0
    7.9867    4.9178    1.4504 H   0  0  0  0  0  0  0  0  0  0  0  0
    6.1394    1.9660    0.2772 H   0  0  0  0  0  0  0  0  0  0  0  0
    7.1853    0.4603   -1.3832 H   0  0  0  0  0  0  0  0  0  0  0  0
    7.8441    2.1105   -1.6056 H   0  0  0  0  0  0  0  0  0  0  0  0
    8.8418    0.8733   -0.7753 H   0  0  0  0  0  0  0  0  0  0  0  0
    6.9605    0.8074    2.3982 H   0  0  0  0  0  0  0  0  0  0  0  0
    8.2215   -1.7503   -0.3629 H   0  0  0  0  0  0  0  0  0  0  0  0
   10.1740   -2.0682    1.1801 H   0  0  0  0  0  0  0  0  0  0  0  0
    9.2419   -1.2772    2.5116 H   0  0  0  0  0  0  0  0  0  0  0  0
    9.7057   -0.3387    1.0374 H   0  0  0  0  0  0  0  0  0  0  0  0
    7.4505   -3.2037    2.2132 H   0  0  0  0  0  0  0  0  0  0  0  0
    8.7992   -3.6340   -1.3691 H   0  0  0  0  0  0  0  0  0  0  0  0
    7.8761   -6.5629   -1.2182 H   0  0  0  0  0  0  0  0  0  0  0  0
    8.5753   -5.7286   -2.6580 H   0  0  0  0  0  0  0  0  0  0  0  0
    9.5680   -5.9381   -1.1738 H   0  0  0  0  0  0  0  0  0  0  0  0
    6.4532   -3.0124   -1.5050 H   0  0  0  0  0  0  0  0  0  0  0  0
   -4.2890    4.9964    1.0239 H   0  0  0  0  0  0  0  0  0  0  0  0
   -3.7394    3.9076   -1.7318 H   0  0  0  0  0  0  0  0  0  0  0  0
   -5.2202    5.7574   -2.4723 H   0  0  0  0  0  0  0  0  0  0  0  0
   -3.8221    6.3299   -1.4805 H   0  0  0  0  0  0  0  0  0  0  0  0
   -5.4684    6.2387   -0.7501 H   0  0  0  0  0  0  0  0  0  0  0  0
   -7.8033    3.8897   -1.0405 H   0  0  0  0  0  0  0  0  0  0  0  0
   -6.5757    5.0048    1.2656 H   0  0  0  0  0  0  0  0  0  0  0  0
   -5.5085    2.6322    1.4949 H   0  0  0  0  0  0  0  0  0  0  0  0
   -6.3888    3.2909    2.9134 H   0  0  0  0  0  0  0  0  0  0  0  0
   -7.1440    2.0372    1.8916 H   0  0  0  0  0  0  0  0  0  0  0  0
  -10.4807    3.3649    1.7425 H   0  0  0  0  0  0  0  0  0  0  0  0
   -8.4930    1.9787   -0.1095 H   0  0  0  0  0  0  0  0  0  0  0  0
  -10.5085    2.9667   -1.2193 H   0  0  0  0  0  0  0  0  0  0  0  0
  -11.5621    1.9628   -0.1478 H   0  0  0  0  0  0  0  0  0  0  0  0
  -10.4456    1.1701   -1.3296 H   0  0  0  0  0  0  0  0  0  0  0  0
   -9.9912   -1.1009    0.2728 H   0  0  0  0  0  0  0  0  0  0  0  0
   -7.4617   -0.9074    1.7662 H   0  0  0  0  0  0  0  0  0  0  0  0
   -7.3626   -0.3386   -1.2602 H   0  0  0  0  0  0  0  0  0  0  0  0
   -6.6404    0.6063    0.0898 H   0  0  0  0  0  0  0  0  0  0  0  0
   -5.9509   -0.9846   -0.3271 H   0  0  0  0  0  0  0  0  0  0  0  0
   -7.5541   -2.6683   -1.5642 H   0  0  0  0  0  0  0  0  0  0  0  0
   -7.3418   -5.2253   -0.0752 H   0  0  0  0  0  0  0  0  0  0  0  0
   -7.0513   -6.6099   -3.4396 H   0  0  0  0  0  0  0  0  0  0  0  0
   -7.6360   -6.8768   -1.7673 H   0  0  0  0  0  0  0  0  0  0  0  0
   -5.5427   -3.9425    1.0343 H   0  0  0  0  0  0  0  0  0  0  0  0
   -4.8006   -3.5308   -0.5456 H   0  0  0  0  0  0  0  0  0  0  0  0
   -3.8583   -5.0164    2.2518 H   0  0  0  0  0  0  0  0  0  0  0  0
   -2.7315   -6.2764    1.7030 H   0  0  0  0  0  0  0  0  0  0  0  0
  1  2  1  0
  2  3  2  0
  2  4  1  0
  4  5  1  0
  5  6  1  0
  6  7  1  0
  7  8  1  0
  8  9  1  0
  9 10  2  0
 10 11  1  0
 11 12  2  0
 12 13  1  0
 13 14  2  0
 13 15  1  0
 15 16  1  0
 16 17  1  0
 17 18  1  0
 18 19  1  0
 19 20  1  0
 20 21  2  0
 20 22  1  0
 22 23  1  0
 22 24  1  0
 24 25  1  0
 25 26  2  0
 25 27  1  0
 27 28  1  0
 27 29  1  0
 29 30  1  0
 30 31  2  0
 30 32  1  0
 32 33  1  0
 32 34  1  0
 34 35  1  0
 35 36  2  0
 35 37  1  0
 37 38  1  0
 37 39  1  0
 39 40  1  0
 40 41  2  0
 40 42  1  0
 42 43  1  0
 42 44  1  0
 44 45  1  0
 45 46  2  0
 45 47  1  0
 47 48  1  0
 47 49  1  0
 49 50  1  0
 50 51  2  0
 18 52  1  0
 52 53  2  0
 52 54  1  0
 54 55  1  0
 55 56  1  0
 55 57  1  0
 57 58  2  0
 57 59  1  0
 59 60  1  0
 60 61  1  0
 60 62  1  0
 62 63  2  0
 62 64  1  0
 64 65  1  0
 65 66  1  0
 65 67  1  0
 67 68  2  0
 67 69  1  0
 69 70  1  0
 70 71  1  0
 70 72  1  0
 72 73  2  0
 72 74  1  0
 74 75  1  0
 75 76  1  0
 76 77  1  0
 76 78  2  0
 75 79  1  0
 79 80  1  0
 80 81  1  0
 50  5  1  0
 14  9  1  0
 81 11  1  0
  1 82  1  0
  1 83  1  0
  1 84  1  0
  4 85  1  0
  5 86  1  6
  6 87  1  0
  6 88  1  0
  8 89  1  0
  8 90  1  0
 10 91  1  0
 12 92  1  0
 14 93  1  0
 15 94  1  0
 15 95  1  0
 17 96  1  0
 17 97  1  0
 18 98  1  1
 19 99  1  0
 22100  1  1
 23101  1  0
 23102  1  0
 23103  1  0
 24104  1  0
 27105  1  6
 28106  1  0
 28107  1  0
 28108  1  0
 29109  1  0
 32110  1  6
 33111  1  0
 33112  1  0
 33113  1  0
 34114  1  0
 37115  1  6
 38116  1  0
 38117  1  0
 38118  1  0
 39119  1  0
 42120  1  6
 43121  1  0
 43122  1  0
 43123  1  0
 44124  1  0
 47125  1  6
 48126  1  0
 48127  1  0
 48128  1  0
 49129  1  0
 54130  1  0
 55131  1  6
 56132  1  0
 56133  1  0
 56134  1  0
 59135  1  0
 60136  1  1
 61137  1  0
 61138  1  0
 61139  1  0
 64140  1  0
 65141  1  6
 66142  1  0
 66143  1  0
 66144  1  0
 69145  1  0
 70146  1  1
 71147  1  0
 71148  1  0
 71149  1  0
 74150  1  0
 75151  1  1
 77152  1  0
 77153  1  0
 79154  1  0
 79155  1  0
 81156  1  0
 81157  1  0
M  END
