
     RDKit          3D

167169  0  0  0  0  0  0  0  0999 V2000
   -4.8814    6.9315    3.1211 C   0  0  0  0  0  0  0  0  0  0  0  0
   -4.6862    6.5887    1.6784 C   0  0  0  0  0  0  0  0  0  0  0  0
   -4.7967    7.4933    0.8101 O   0  0  0  0  0  0  0  0  0  0  0  0
   -4.4540    5.2231    1.3059 N   0  0  0  0  0  0  0  0  0  0  0  0
   -3.7998    4.8847    0.0404 C   0  0  1  0  0  0  0  0  0  0  0  0
   -2.2813    5.2189    0.0862 C   0  0  0  0  0  0  0  0  0  0  0  0
   -1.4959    5.1167    1.7539 S   0  0  0  0  0  0  0  0  0  0  0  0
   -1.2242    3.3083    1.8324 C   0  0  0  0  0  0  0  0  0  0  0  0
   -0.3694    2.7702    0.7156 C   0  0  0  0  0  0  0  0  0  0  0  0
    0.6512    3.5412    0.1276 C   0  0  0  0  0  0  0  0  0  0  0  0
    1.2780    3.1069   -1.0539 C   0  0  0  0  0  0  0  0  0  0  0  0
    0.9748    1.8352   -1.5776 C   0  0  0  0  0  0  0  0  0  0  0  0
    0.0140    1.0234   -0.9502 C   0  0  0  0  0  0  0  0  0  0  0  0
   -0.6402    1.4969    0.1987 C   0  0  0  0  0  0  0  0  0  0  0  0
   -0.5265   -0.2127   -1.6118 C   0  0  0  0  0  0  0  0  0  0  0  0
    0.7206   -1.3295   -2.3303 S   0  0  0  0  0  0  0  0  0  0  0  0
    1.7011   -1.8909   -0.8824 C   0  0  0  0  0  0  0  0  0  0  0  0
    0.9371   -2.3028    0.3949 C   0  0  1  0  0  0  0  0  0  0  0  0
   -0.2323   -3.1774    0.1335 N   0  0  0  0  0  0  0  0  0  0  0  0
   -0.3905   -4.5886    0.3420 C   0  0  0  0  0  0  0  0  0  0  0  0
    0.2537   -5.1847    1.2436 O   0  0  0  0  0  0  0  0  0  0  0  0
   -1.3588   -5.3598   -0.5132 C   0  0  1  0  0  0  0  0  0  0  0  0
   -0.6750   -6.5809   -1.1452 C   0  0  0  0  0  0  0  0  0  0  0  0
   -2.5065   -5.7898    0.2849 N   0  0  0  0  0  0  0  0  0  0  0  0
   -3.7429   -6.2427   -0.3052 C   0  0  0  0  0  0  0  0  0  0  0  0
   -4.3268   -7.2393    0.1956 O   0  0  0  0  0  0  0  0  0  0  0  0
   -4.4054   -5.4775   -1.4458 C   0  0  1  0  0  0  0  0  0  0  0  0
   -3.8959   -5.9759   -2.8037 C   0  0  0  0  0  0  0  0  0  0  0  0
   -5.8700   -5.6284   -1.3874 N   0  0  0  0  0  0  0  0  0  0  0  0
   -6.6778   -5.2144   -0.2730 C   0  0  0  0  0  0  0  0  0  0  0  0
   -6.1433   -4.7630    0.7822 O   0  0  0  0  0  0  0  0  0  0  0  0
   -8.1862   -5.2317   -0.4171 C   0  0  1  0  0  0  0  0  0  0  0  0
   -8.8967   -5.6139    0.8848 C   0  0  0  0  0  0  0  0  0  0  0  0
   -8.7097   -3.9640   -0.9289 N   0  0  0  0  0  0  0  0  0  0  0  0
   -8.2788   -2.6707   -0.4608 C   0  0  0  0  0  0  0  0  0  0  0  0
   -7.0560   -2.3695   -0.5176 O   0  0  0  0  0  0  0  0  0  0  0  0
   -9.2544   -1.6210    0.0225 C   0  0  1  0  0  0  0  0  0  0  0  0
  -10.7035   -2.1277    0.1115 C   0  0  0  0  0  0  0  0  0  0  0  0
   -8.8387   -1.1559    1.3520 N   0  0  0  0  0  0  0  0  0  0  0  0
   -8.8780    0.2136    1.8003 C   0  0  0  0  0  0  0  0  0  0  0  0
   -8.9737    0.4367    3.0314 O   0  0  0  0  0  0  0  0  0  0  0  0
   -8.8026    1.3843    0.8364 C   0  0  1  0  0  0  0  0  0  0  0  0
  -10.1964    1.7569    0.3200 C   0  0  0  0  0  0  0  0  0  0  0  0
   -8.2092    2.5604    1.4934 N   0  0  0  0  0  0  0  0  0  0  0  0
   -7.5140    3.6262    0.8180 C   0  0  0  0  0  0  0  0  0  0  0  0
   -7.4748    4.7540    1.3825 O   0  0  0  0  0  0  0  0  0  0  0  0
   -6.7279    3.4045   -0.4548 C   0  0  1  0  0  0  0  0  0  0  0  0
   -6.6841    4.6568   -1.3442 C   0  0  0  0  0  0  0  0  0  0  0  0
   -5.4066    2.8532   -0.1081 N   0  0  0  0  0  0  0  0  0  0  0  0
   -4.1141    3.4509   -0.3516 C   0  0  0  0  0  0  0  0  0  0  0  0
   -3.2389    2.7423   -0.9234 O   0  0  0  0  0  0  0  0  0  0  0  0
    1.8438   -2.7909    1.5243 C   0  0  0  0  0  0  0  0  0  0  0  0
    1.8257   -2.1430    2.6078 O   0  0  0  0  0  0  0  0  0  0  0  0
    2.5968   -4.0185    1.4949 N   0  0  0  0  0  0  0  0  0  0  0  0
    3.5208   -4.4535    0.4306 C   0  0  2  0  0  0  0  0  0  0  0  0
    2.8197   -5.4463   -0.5073 C   0  0  0  0  0  0  0  0  0  0  0  0
    4.7556   -5.0951    1.0536 C   0  0  0  0  0  0  0  0  0  0  0  0
    4.9460   -6.3404    0.9166 O   0  0  0  0  0  0  0  0  0  0  0  0
    5.7133   -4.3378    1.8243 N   0  0  0  0  0  0  0  0  0  0  0  0
    6.1998   -2.9743    1.5456 C   0  0  2  0  0  0  0  0  0  0  0  0
    5.1579   -1.9090    1.8929 C   0  0  0  0  0  0  0  0  0  0  0  0
    6.7087   -2.8026    0.1300 C   0  0  0  0  0  0  0  0  0  0  0  0
    6.4139   -3.6326   -0.7726 O   0  0  0  0  0  0  0  0  0  0  0  0
    7.4891   -1.6537   -0.2213 N   0  0  0  0  0  0  0  0  0  0  0  0
    8.9379   -1.5737   -0.0282 C   0  0  2  0  0  0  0  0  0  0  0  0
    9.6402   -2.9000   -0.3728 C   0  0  0  0  0  0  0  0  0  0  0  0
    9.2703   -1.1229    1.3801 C   0  0  0  0  0  0  0  0  0  0  0  0
    9.3948   -1.9936    2.2895 O   0  0  0  0  0  0  0  0  0  0  0  0
    9.4524    0.2582    1.7333 N   0  0  0  0  0  0  0  0  0  0  0  0
    9.6422    1.3530    0.7672 C   0  0  2  0  0  0  0  0  0  0  0  0
   11.0693    1.3022    0.2063 C   0  0  0  0  0  0  0  0  0  0  0  0
    9.3951    2.7113    1.4072 C   0  0  0  0  0  0  0  0  0  0  0  0
    9.4579    2.8366    2.6599 O   0  0  0  0  0  0  0  0  0  0  0  0
    9.1816    3.8929    0.6151 N   0  0  0  0  0  0  0  0  0  0  0  0
    8.8695    3.8993   -0.8132 C   0  0  2  0  0  0  0  0  0  0  0  0
    9.4130    5.1783   -1.4569 C   0  0  0  0  0  0  0  0  0  0  0  0
    7.3861    3.7780   -1.0458 C   0  0  0  0  0  0  0  0  0  0  0  0
    6.9319    3.8304   -2.2175 O   0  0  0  0  0  0  0  0  0  0  0  0
    6.4761    3.6466    0.0571 N   0  0  0  0  0  0  0  0  0  0  0  0
    5.5382    4.6975    0.4915 C   0  0  1  0  0  0  0  0  0  0  0  0
    6.0031    6.0823    0.0804 C   0  0  0  0  0  0  0  0  0  0  0  0
    5.8481    6.5660   -1.2552 N   0  0  0  0  0  0  0  0  0  0  0  0
    6.6283    6.7909    0.9061 O   0  0  0  0  0  0  0  0  0  0  0  0
    4.0836    4.3916    0.0825 C   0  0  0  0  0  0  0  0  0  0  0  0
    3.9283    3.7005   -1.6164 S   0  0  0  0  0  0  0  0  0  0  0  0
    2.1503    4.0587   -1.8345 C   0  0  0  0  0  0  0  0  0  0  0  0
   -4.1232    6.3910    3.7284 H   0  0  0  0  0  0  0  0  0  0  0  0
   -4.7548    8.0207    3.2865 H   0  0  0  0  0  0  0  0  0  0  0  0
   -5.8906    6.6027    3.4538 H   0  0  0  0  0  0  0  0  0  0  0  0
   -4.5317    4.4834    2.0395 H   0  0  0  0  0  0  0  0  0  0  0  0
   -4.2144    5.5317   -0.7666 H   0  0  0  0  0  0  0  0  0  0  0  0
   -2.1728    6.2794   -0.2322 H   0  0  0  0  0  0  0  0  0  0  0  0
   -1.7095    4.6353   -0.6686 H   0  0  0  0  0  0  0  0  0  0  0  0
   -2.2172    2.8108    1.8401 H   0  0  0  0  0  0  0  0  0  0  0  0
   -0.7272    3.0831    2.8016 H   0  0  0  0  0  0  0  0  0  0  0  0
    0.9194    4.5023    0.5371 H   0  0  0  0  0  0  0  0  0  0  0  0
    1.4285    1.5092   -2.4932 H   0  0  0  0  0  0  0  0  0  0  0  0
   -1.4466    0.9196    0.6405 H   0  0  0  0  0  0  0  0  0  0  0  0
   -1.1953    0.0950   -2.4358 H   0  0  0  0  0  0  0  0  0  0  0  0
   -1.1638   -0.7706   -0.9200 H   0  0  0  0  0  0  0  0  0  0  0  0
    2.2621   -2.7523   -1.2728 H   0  0  0  0  0  0  0  0  0  0  0  0
    2.4352   -1.0905   -0.6342 H   0  0  0  0  0  0  0  0  0  0  0  0
    0.5152   -1.3386    0.7776 H   0  0  0  0  0  0  0  0  0  0  0  0
   -1.1361   -2.6863   -0.0650 H   0  0  0  0  0  0  0  0  0  0  0  0
   -1.6950   -4.6776   -1.3251 H   0  0  0  0  0  0  0  0  0  0  0  0
    0.0883   -6.2424   -1.8865 H   0  0  0  0  0  0  0  0  0  0  0  0
   -1.4195   -7.2040   -1.6854 H   0  0  0  0  0  0  0  0  0  0  0  0
   -0.1804   -7.2162   -0.3706 H   0  0  0  0  0  0  0  0  0  0  0  0
   -2.3543   -6.0264    1.2886 H   0  0  0  0  0  0  0  0  0  0  0  0
   -4.1651   -4.3976   -1.3405 H   0  0  0  0  0  0  0  0  0  0  0  0
   -4.4665   -5.4906   -3.6194 H   0  0  0  0  0  0  0  0  0  0  0  0
   -2.8323   -5.7133   -2.9515 H   0  0  0  0  0  0  0  0  0  0  0  0
   -4.0135   -7.0741   -2.8905 H   0  0  0  0  0  0  0  0  0  0  0  0
   -6.3767   -5.9786   -2.2320 H   0  0  0  0  0  0  0  0  0  0  0  0
   -8.4393   -6.0244   -1.1644 H   0  0  0  0  0  0  0  0  0  0  0  0
   -8.5716   -6.6223    1.2129 H   0  0  0  0  0  0  0  0  0  0  0  0
   -8.6829   -4.8748    1.6899 H   0  0  0  0  0  0  0  0  0  0  0  0
   -9.9960   -5.6354    0.7114 H   0  0  0  0  0  0  0  0  0  0  0  0
   -9.6113   -4.0143   -1.4500 H   0  0  0  0  0  0  0  0  0  0  0  0
   -9.2246   -0.7971   -0.7137 H   0  0  0  0  0  0  0  0  0  0  0  0
  -10.7617   -3.0465    0.7290 H   0  0  0  0  0  0  0  0  0  0  0  0
  -11.3458   -1.3434    0.5627 H   0  0  0  0  0  0  0  0  0  0  0  0
  -11.1005   -2.3337   -0.9091 H   0  0  0  0  0  0  0  0  0  0  0  0
   -8.7207   -1.8881    2.0888 H   0  0  0  0  0  0  0  0  0  0  0  0
   -8.1663    1.0677   -0.0111 H   0  0  0  0  0  0  0  0  0  0  0  0
  -10.8383    2.0857    1.1656 H   0  0  0  0  0  0  0  0  0  0  0  0
  -10.1117    2.5744   -0.4169 H   0  0  0  0  0  0  0  0  0  0  0  0
  -10.6817    0.9031   -0.1863 H   0  0  0  0  0  0  0  0  0  0  0  0
   -8.5608    2.7998    2.4497 H   0  0  0  0  0  0  0  0  0  0  0  0
   -7.2495    2.6506   -1.0845 H   0  0  0  0  0  0  0  0  0  0  0  0
   -7.6777    4.8187   -1.8087 H   0  0  0  0  0  0  0  0  0  0  0  0
   -5.9443    4.5140   -2.1599 H   0  0  0  0  0  0  0  0  0  0  0  0
   -6.4345    5.5638   -0.7592 H   0  0  0  0  0  0  0  0  0  0  0  0
   -5.3913    1.8233    0.0961 H   0  0  0  0  0  0  0  0  0  0  0  0
    2.6016   -4.5738    2.3811 H   0  0  0  0  0  0  0  0  0  0  0  0
    3.8689   -3.5918   -0.1737 H   0  0  0  0  0  0  0  0  0  0  0  0
    2.3922   -6.2932    0.0749 H   0  0  0  0  0  0  0  0  0  0  0  0
    3.5231   -5.8447   -1.2725 H   0  0  0  0  0  0  0  0  0  0  0  0
    1.9999   -4.9381   -1.0569 H   0  0  0  0  0  0  0  0  0  0  0  0
    6.2876   -4.9043    2.4953 H   0  0  0  0  0  0  0  0  0  0  0  0
    7.0608   -2.8048    2.2239 H   0  0  0  0  0  0  0  0  0  0  0  0
    4.6913   -2.1354    2.8720 H   0  0  0  0  0  0  0  0  0  0  0  0
    5.6350   -0.9096    1.9420 H   0  0  0  0  0  0  0  0  0  0  0  0
    4.3782   -1.8602    1.1166 H   0  0  0  0  0  0  0  0  0  0  0  0
    7.0578   -0.9931   -0.9057 H   0  0  0  0  0  0  0  0  0  0  0  0
    9.3391   -0.8370   -0.7576 H   0  0  0  0  0  0  0  0  0  0  0  0
   10.7337   -2.8065   -0.2143 H   0  0  0  0  0  0  0  0  0  0  0  0
    9.4606   -3.1558   -1.4431 H   0  0  0  0  0  0  0  0  0  0  0  0
    9.2537   -3.7340    0.2501 H   0  0  0  0  0  0  0  0  0  0  0  0
    9.5583    0.4523    2.7561 H   0  0  0  0  0  0  0  0  0  0  0  0
    8.8952    1.2447   -0.0445 H   0  0  0  0  0  0  0  0  0  0  0  0
   11.1647    0.5145   -0.5754 H   0  0  0  0  0  0  0  0  0  0  0  0
   11.7991    1.1057    1.0204 H   0  0  0  0  0  0  0  0  0  0  0  0
   11.3542    2.2741   -0.2660 H   0  0  0  0  0  0  0  0  0  0  0  0
    9.1232    4.8015    1.1328 H   0  0  0  0  0  0  0  0  0  0  0  0
    9.3614    3.0483   -1.3238 H   0  0  0  0  0  0  0  0  0  0  0  0
   10.4839    5.3031   -1.1949 H   0  0  0  0  0  0  0  0  0  0  0  0
    8.8462    6.0691   -1.0987 H   0  0  0  0  0  0  0  0  0  0  0  0
    9.3362    5.1088   -2.5623 H   0  0  0  0  0  0  0  0  0  0  0  0
    6.3539    2.6899    0.4593 H   0  0  0  0  0  0  0  0  0  0  0  0
    5.5497    4.6922    1.6027 H   0  0  0  0  0  0  0  0  0  0  0  0
    5.2576    6.0660   -1.9519 H   0  0  0  0  0  0  0  0  0  0  0  0
    6.6258    7.1289   -1.6630 H   0  0  0  0  0  0  0  0  0  0  0  0
    3.6616    3.6300    0.7833 H   0  0  0  0  0  0  0  0  0  0  0  0
    3.4726    5.3145    0.1940 H   0  0  0  0  0  0  0  0  0  0  0  0
    1.9091    3.9467   -2.9172 H   0  0  0  0  0  0  0  0  0  0  0  0
    1.9179    5.1139   -1.5687 H   0  0  0  0  0  0  0  0  0  0  0  0
  1  2  1  0
  2  3  2  0
  2  4  1  0
  4  5  1  0
  5  6  1  0
  6  7  1  0
  7  8  1  0
  8  9  1  0
  9 10  2  0
 10 11  1  0
 11 12  2  0
 12 13  1  0
 13 14  2  0
 13 15  1  0
 15 16  1  0
 16 17  1  0
 17 18  1  0
 18 19  1  0
 19 20  1  0
 20 21  2  0
 20 22  1  0
 22 23  1  0
 22 24  1  0
 24 25  1  0
 25 26  2  0
 25 27  1  0
 27 28  1  0
 27 29  1  0
 29 30  1  0
 30 31  2  0
 30 32  1  0
 32 33  1  0
 32 34  1  0
 34 35  1  0
 35 36  2  0
 35 37  1  0
 37 38  1  0
 37 39  1  0
 39 40  1  0
 40 41  2  0
 40 42  1  0
 42 43  1  0
 42 44  1  0
 44 45  1  0
 45 46  2  0
 45 47  1  0
 47 48  1  0
 47 49  1  0
 49 50  1  0
 50 51  2  0
 18 52  1  0
 52 53  2  0
 52 54  1  0
 54 55  1  0
 55 56  1  0
 55 57  1  0
 57 58  2  0
 57 59  1  0
 59 60  1  0
 60 61  1  0
 60 62  1  0
 62 63  2  0
 62 64  1  0
 64 65  1  0
 65 66  1  0
 65 67  1  0
 67 68  2  0
 67 69  1  0
 69 70  1  0
 70 71  1  0
 70 72  1  0
 72 73  2  0
 72 74  1  0
 74 75  1  0
 75 76  1  0
 75 77  1  0
 77 78  2  0
 77 79  1  0
 79 80  1  0
 80 81  1  0
 81 82  1  0
 81 83  2  0
 80 84  1  0
 84 85  1  0
 85 86  1  0
 50  5  1  0
 14  9  1  0
 86 11  1  0
  1 87  1  0
  1 88  1  0
  1 89  1  0
  4 90  1  0
  5 91  1  6
  6 92  1  0
  6 93  1  0
  8 94  1  0
  8 95  1  0
 10 96  1  0
 12 97  1  0
 14 98  1  0
 15 99  1  0
 15100  1  0
 17101  1  0
 17102  1  0
 18103  1  1
 19104  1  0
 22105  1  6
 23106  1  0
 23107  1  0
 23108  1  0
 24109  1  0
 27110  1  1
 28111  1  0
 28112  1  0
 28113  1  0
 29114  1  0
 32115  1  6
 33116  1  0
 33117  1  0
 33118  1  0
 34119  1  0
 37120  1  6
 38121  1  0
 38122  1  0
 38123  1  0
 39124  1  0
 42125  1  6
 43126  1  0
 43127  1  0
 43128  1  0
 44129  1  0
 47130  1  6
 48131  1  0
 48132  1  0
 48133  1  0
 49134  1  0
 54135  1  0
 55136  1  6
 56137  1  0
 56138  1  0
 56139  1  0
 59140  1  0
 60141  1  1
 61142  1  0
 61143  1  0
 61144  1  0
 64145  1  0
 65146  1  6
 66147  1  0
 66148  1  0
 66149  1  0
 69150  1  0
 70151  1  6
 71152  1  0
 71153  1  0
 71154  1  0
 74155  1  0
 75156  1  6
 76157  1  0
 76158  1  0
 76159  1  0
 79160  1  0
 80161  1  1
 82162  1  0
 82163  1  0
 84164  1  0
 84165  1  0
 86166  1  0
 86167  1  0
M  END
