
     RDKit          3D

167169  0  0  0  0  0  0  0  0999 V2000
    4.8234   -8.0309    1.4149 C   0  0  0  0  0  0  0  0  0  0  0  0
    4.8802   -7.8672   -0.0746 C   0  0  0  0  0  0  0  0  0  0  0  0
    5.1686   -8.8661   -0.7851 O   0  0  0  0  0  0  0  0  0  0  0  0
    4.5968   -6.6130   -0.7132 N   0  0  0  0  0  0  0  0  0  0  0  0
    4.3897   -5.3564    0.0215 C   0  0  2  0  0  0  0  0  0  0  0  0
    3.9041   -4.2362   -0.9170 C   0  0  0  0  0  0  0  0  0  0  0  0
    2.2107   -4.5507   -1.5385 S   0  0  0  0  0  0  0  0  0  0  0  0
    1.3142   -4.0714   -0.0159 C   0  0  0  0  0  0  0  0  0  0  0  0
    0.3648   -2.9400   -0.2982 C   0  0  0  0  0  0  0  0  0  0  0  0
   -1.0225   -3.1311   -0.2006 C   0  0  0  0  0  0  0  0  0  0  0  0
   -1.9103   -2.0633   -0.4003 C   0  0  0  0  0  0  0  0  0  0  0  0
   -1.3984   -0.7893   -0.7041 C   0  0  0  0  0  0  0  0  0  0  0  0
   -0.0132   -0.5856   -0.8021 C   0  0  0  0  0  0  0  0  0  0  0  0
    0.8619   -1.6643   -0.5999 C   0  0  0  0  0  0  0  0  0  0  0  0
    0.5334    0.7948   -1.0550 C   0  0  0  0  0  0  0  0  0  0  0  0
    1.0270    1.5615    0.5344 S   0  0  0  0  0  0  0  0  0  0  0  0
   -0.2812    2.8426    0.5761 C   0  0  0  0  0  0  0  0  0  0  0  0
   -0.2953    3.5577    1.9389 C   0  0  1  0  0  0  0  0  0  0  0  0
    1.0120    4.1587    2.2639 N   0  0  0  0  0  0  0  0  0  0  0  0
    1.3944    5.5343    2.0572 C   0  0  0  0  0  0  0  0  0  0  0  0
    1.9956    6.1423    2.9825 O   0  0  0  0  0  0  0  0  0  0  0  0
    1.1625    6.2496    0.7493 C   0  0  1  0  0  0  0  0  0  0  0  0
    0.1697    7.4062    0.9513 C   0  0  0  0  0  0  0  0  0  0  0  0
    2.4358    6.7829    0.2370 N   0  0  0  0  0  0  0  0  0  0  0  0
    3.5378    5.9862   -0.2439 C   0  0  0  0  0  0  0  0  0  0  0  0
    4.5884    6.5793   -0.6100 O   0  0  0  0  0  0  0  0  0  0  0  0
    3.4835    4.4814   -0.3586 C   0  0  1  0  0  0  0  0  0  0  0  0
    3.3047    4.0827   -1.8286 C   0  0  0  0  0  0  0  0  0  0  0  0
    4.6921    3.9106    0.2626 N   0  0  0  0  0  0  0  0  0  0  0  0
    5.6498    3.0697   -0.3986 C   0  0  0  0  0  0  0  0  0  0  0  0
    5.2662    2.0190   -0.9861 O   0  0  0  0  0  0  0  0  0  0  0  0
    7.1265    3.3654   -0.3170 C   0  0  1  0  0  0  0  0  0  0  0  0
    7.4119    4.8675   -0.2657 C   0  0  0  0  0  0  0  0  0  0  0  0
    7.7030    2.7116    0.8623 N   0  0  0  0  0  0  0  0  0  0  0  0
    8.9949    2.0772    0.8844 C   0  0  0  0  0  0  0  0  0  0  0  0
    9.5532    1.8886    1.9995 O   0  0  0  0  0  0  0  0  0  0  0  0
    9.6968    1.6402   -0.3882 C   0  0  1  0  0  0  0  0  0  0  0  0
   11.1021    1.0560   -0.1638 C   0  0  0  0  0  0  0  0  0  0  0  0
    8.8712    0.7190   -1.1837 N   0  0  0  0  0  0  0  0  0  0  0  0
    8.1951   -0.4751   -0.7332 C   0  0  0  0  0  0  0  0  0  0  0  0
    7.3292   -0.9852   -1.4925 O   0  0  0  0  0  0  0  0  0  0  0  0
    8.5117   -1.1626    0.5801 C   0  0  1  0  0  0  0  0  0  0  0  0
    7.2479   -1.4273    1.4111 C   0  0  0  0  0  0  0  0  0  0  0  0
    9.3263   -2.3677    0.3507 N   0  0  0  0  0  0  0  0  0  0  0  0
    8.8568   -3.7254    0.3146 C   0  0  0  0  0  0  0  0  0  0  0  0
    9.5126   -4.6080    0.9316 O   0  0  0  0  0  0  0  0  0  0  0  0
    7.7136   -4.1530   -0.5677 C   0  0  1  0  0  0  0  0  0  0  0  0
    8.2410   -4.6623   -1.9069 C   0  0  0  0  0  0  0  0  0  0  0  0
    6.9362   -5.2019    0.0916 N   0  0  0  0  0  0  0  0  0  0  0  0
    5.6675   -4.9183    0.6854 C   0  0  0  0  0  0  0  0  0  0  0  0
    5.6165   -4.2663    1.7618 O   0  0  0  0  0  0  0  0  0  0  0  0
   -1.4405    4.5227    2.1831 C   0  0  0  0  0  0  0  0  0  0  0  0
   -1.4001    5.2349    3.2250 O   0  0  0  0  0  0  0  0  0  0  0  0
   -2.6640    4.4972    1.4298 N   0  0  0  0  0  0  0  0  0  0  0  0
   -2.7631    4.8996    0.0244 C   0  0  2  0  0  0  0  0  0  0  0  0
   -3.4577    6.2598   -0.1230 C   0  0  0  0  0  0  0  0  0  0  0  0
   -3.4262    3.8241   -0.8208 C   0  0  0  0  0  0  0  0  0  0  0  0
   -2.7318    3.2934   -1.7281 O   0  0  0  0  0  0  0  0  0  0  0  0
   -4.8067    3.4129   -0.7019 N   0  0  0  0  0  0  0  0  0  0  0  0
   -5.6840    3.5864    0.4603 C   0  0  2  0  0  0  0  0  0  0  0  0
   -5.5331    2.3990    1.4202 C   0  0  0  0  0  0  0  0  0  0  0  0
   -7.1163    3.7482    0.0054 C   0  0  0  0  0  0  0  0  0  0  0  0
   -7.6671    4.8809    0.1052 O   0  0  0  0  0  0  0  0  0  0  0  0
   -7.8398    2.6414   -0.5507 N   0  0  0  0  0  0  0  0  0  0  0  0
   -9.2563    2.7169   -0.9358 C   0  0  2  0  0  0  0  0  0  0  0  0
  -10.1452    2.9617    0.2940 C   0  0  0  0  0  0  0  0  0  0  0  0
   -9.6733    1.4541   -1.6521 C   0  0  0  0  0  0  0  0  0  0  0  0
  -10.3078    1.5332   -2.7370 O   0  0  0  0  0  0  0  0  0  0  0  0
   -9.2716    0.1656   -1.1728 N   0  0  0  0  0  0  0  0  0  0  0  0
   -9.8454   -0.4417    0.0287 C   0  0  2  0  0  0  0  0  0  0  0  0
   -8.8078   -0.4627    1.1580 C   0  0  0  0  0  0  0  0  0  0  0  0
  -10.3408   -1.8437   -0.2411 C   0  0  0  0  0  0  0  0  0  0  0  0
  -11.1640   -2.3550    0.5690 O   0  0  0  0  0  0  0  0  0  0  0  0
   -9.9198   -2.5886   -1.3979 N   0  0  0  0  0  0  0  0  0  0  0  0
   -9.2151   -3.8788   -1.3335 C   0  0  2  0  0  0  0  0  0  0  0  0
   -9.7905   -4.7943   -0.2428 C   0  0  0  0  0  0  0  0  0  0  0  0
   -7.7312   -3.6696   -1.1280 C   0  0  0  0  0  0  0  0  0  0  0  0
   -7.2523   -2.5061   -1.0674 O   0  0  0  0  0  0  0  0  0  0  0  0
   -6.8540   -4.7982   -1.0126 N   0  0  0  0  0  0  0  0  0  0  0  0
   -5.6713   -4.7648   -0.1428 C   0  0  1  0  0  0  0  0  0  0  0  0
   -5.6995   -5.9559    0.7867 C   0  0  0  0  0  0  0  0  0  0  0  0
   -5.6141   -7.2873    0.2780 N   0  0  0  0  0  0  0  0  0  0  0  0
   -5.8140   -5.7735    2.0281 O   0  0  0  0  0  0  0  0  0  0  0  0
   -4.3772   -4.7579   -0.9773 C   0  0  0  0  0  0  0  0  0  0  0  0
   -4.0701   -3.1210   -1.7464 S   0  0  0  0  0  0  0  0  0  0  0  0
   -3.3948   -2.2807   -0.2637 C   0  0  0  0  0  0  0  0  0  0  0  0
    5.5566   -7.3606    1.9057 H   0  0  0  0  0  0  0  0  0  0  0  0
    3.8032   -7.7923    1.7800 H   0  0  0  0  0  0  0  0  0  0  0  0
    5.0660   -9.0769    1.7019 H   0  0  0  0  0  0  0  0  0  0  0  0
    4.5601   -6.6059   -1.7577 H   0  0  0  0  0  0  0  0  0  0  0  0
    3.6235   -5.5255    0.8084 H   0  0  0  0  0  0  0  0  0  0  0  0
    4.5883   -4.1546   -1.7868 H   0  0  0  0  0  0  0  0  0  0  0  0
    3.9211   -3.2532   -0.3962 H   0  0  0  0  0  0  0  0  0  0  0  0
    0.7599   -4.9705    0.3320 H   0  0  0  0  0  0  0  0  0  0  0  0
    1.9939   -3.7741    0.8092 H   0  0  0  0  0  0  0  0  0  0  0  0
   -1.4075   -4.1094    0.0524 H   0  0  0  0  0  0  0  0  0  0  0  0
   -2.0765    0.0428   -0.8465 H   0  0  0  0  0  0  0  0  0  0  0  0
    1.9311   -1.5045   -0.6580 H   0  0  0  0  0  0  0  0  0  0  0  0
    1.4339    0.7259   -1.7014 H   0  0  0  0  0  0  0  0  0  0  0  0
   -0.2075    1.4144   -1.6082 H   0  0  0  0  0  0  0  0  0  0  0  0
   -0.0951    3.5454   -0.2538 H   0  0  0  0  0  0  0  0  0  0  0  0
   -1.2611    2.3451    0.4187 H   0  0  0  0  0  0  0  0  0  0  0  0
   -0.4643    2.7470    2.6812 H   0  0  0  0  0  0  0  0  0  0  0  0
    1.5937    3.6336    2.9555 H   0  0  0  0  0  0  0  0  0  0  0  0
    0.7320    5.5675   -0.0097 H   0  0  0  0  0  0  0  0  0  0  0  0
   -0.7449    7.0610    1.4696 H   0  0  0  0  0  0  0  0  0  0  0  0
    0.6213    8.2249    1.5452 H   0  0  0  0  0  0  0  0  0  0  0  0
   -0.1287    7.8122   -0.0364 H   0  0  0  0  0  0  0  0  0  0  0  0
    2.6287    7.8026    0.3480 H   0  0  0  0  0  0  0  0  0  0  0  0
    2.6127    4.0846    0.1892 H   0  0  0  0  0  0  0  0  0  0  0  0
    4.2087    4.3477   -2.4210 H   0  0  0  0  0  0  0  0  0  0  0  0
    2.4322    4.6188   -2.2592 H   0  0  0  0  0  0  0  0  0  0  0  0
    3.0946    3.0004   -1.9111 H   0  0  0  0  0  0  0  0  0  0  0  0
    4.9132    4.2112    1.2378 H   0  0  0  0  0  0  0  0  0  0  0  0
    7.5872    2.9844   -1.2505 H   0  0  0  0  0  0  0  0  0  0  0  0
    6.9810    5.3699   -1.1591 H   0  0  0  0  0  0  0  0  0  0  0  0
    6.9918    5.3279    0.6544 H   0  0  0  0  0  0  0  0  0  0  0  0
    8.5103    5.0371   -0.2645 H   0  0  0  0  0  0  0  0  0  0  0  0
    7.2424    2.8875    1.7848 H   0  0  0  0  0  0  0  0  0  0  0  0
    9.8592    2.5590   -0.9937 H   0  0  0  0  0  0  0  0  0  0  0  0
   11.7634    1.8275    0.2870 H   0  0  0  0  0  0  0  0  0  0  0  0
   11.0906    0.1731    0.5038 H   0  0  0  0  0  0  0  0  0  0  0  0
   11.5400    0.7490   -1.1387 H   0  0  0  0  0  0  0  0  0  0  0  0
    8.6811    1.0087   -2.1713 H   0  0  0  0  0  0  0  0  0  0  0  0
    9.1119   -0.4928    1.2145 H   0  0  0  0  0  0  0  0  0  0  0  0
    6.8471   -0.4607    1.7905 H   0  0  0  0  0  0  0  0  0  0  0  0
    6.4445   -1.9075    0.8199 H   0  0  0  0  0  0  0  0  0  0  0  0
    7.4917   -2.0671    2.2855 H   0  0  0  0  0  0  0  0  0  0  0  0
   10.3593   -2.2464    0.4632 H   0  0  0  0  0  0  0  0  0  0  0  0
    7.0531   -3.2974   -0.7830 H   0  0  0  0  0  0  0  0  0  0  0  0
    8.8088   -3.8613   -2.4275 H   0  0  0  0  0  0  0  0  0  0  0  0
    7.3918   -4.9695   -2.5530 H   0  0  0  0  0  0  0  0  0  0  0  0
    8.9087   -5.5409   -1.7596 H   0  0  0  0  0  0  0  0  0  0  0  0
    7.2993   -6.1804    0.1228 H   0  0  0  0  0  0  0  0  0  0  0  0
   -3.5257    4.5444    2.0153 H   0  0  0  0  0  0  0  0  0  0  0  0
   -1.7392    5.0554   -0.3744 H   0  0  0  0  0  0  0  0  0  0  0  0
   -3.5847    6.5105   -1.2006 H   0  0  0  0  0  0  0  0  0  0  0  0
   -4.4513    6.2943    0.3632 H   0  0  0  0  0  0  0  0  0  0  0  0
   -2.8343    7.0585    0.3348 H   0  0  0  0  0  0  0  0  0  0  0  0
   -5.1471    2.7604   -1.4481 H   0  0  0  0  0  0  0  0  0  0  0  0
   -5.4230    4.4999    1.0141 H   0  0  0  0  0  0  0  0  0  0  0  0
   -6.2172    2.5159    2.2871 H   0  0  0  0  0  0  0  0  0  0  0  0
   -5.7547    1.4388    0.9088 H   0  0  0  0  0  0  0  0  0  0  0  0
   -4.4900    2.3433    1.7993 H   0  0  0  0  0  0  0  0  0  0  0  0
   -7.2958    1.7811   -0.7856 H   0  0  0  0  0  0  0  0  0  0  0  0
   -9.3938    3.5739   -1.6310 H   0  0  0  0  0  0  0  0  0  0  0  0
   -9.8668    2.2878    1.1291 H   0  0  0  0  0  0  0  0  0  0  0  0
  -10.0256    4.0086    0.6492 H   0  0  0  0  0  0  0  0  0  0  0  0
  -11.2190    2.8105    0.0435 H   0  0  0  0  0  0  0  0  0  0  0  0
   -8.4992   -0.3181   -1.6833 H   0  0  0  0  0  0  0  0  0  0  0  0
  -10.7181    0.1615    0.3610 H   0  0  0  0  0  0  0  0  0  0  0  0
   -9.2876   -0.7776    2.1095 H   0  0  0  0  0  0  0  0  0  0  0  0
   -7.9830   -1.1662    0.9286 H   0  0  0  0  0  0  0  0  0  0  0  0
   -8.3694    0.5443    1.3062 H   0  0  0  0  0  0  0  0  0  0  0  0
   -9.8931   -2.0911   -2.3163 H   0  0  0  0  0  0  0  0  0  0  0  0
   -9.3484   -4.3932   -2.3088 H   0  0  0  0  0  0  0  0  0  0  0  0
   -9.3748   -5.8207   -0.3395 H   0  0  0  0  0  0  0  0  0  0  0  0
   -9.5347   -4.4062    0.7689 H   0  0  0  0  0  0  0  0  0  0  0  0
  -10.8943   -4.8664   -0.3464 H   0  0  0  0  0  0  0  0  0  0  0  0
   -7.1695   -5.7134   -1.4036 H   0  0  0  0  0  0  0  0  0  0  0  0
   -5.7007   -3.8489    0.4878 H   0  0  0  0  0  0  0  0  0  0  0  0
   -5.5403   -7.4656   -0.7467 H   0  0  0  0  0  0  0  0  0  0  0  0
   -5.6050   -8.0999    0.9307 H   0  0  0  0  0  0  0  0  0  0  0  0
   -4.4479   -5.5105   -1.7880 H   0  0  0  0  0  0  0  0  0  0  0  0
   -3.5116   -5.0347   -0.3427 H   0  0  0  0  0  0  0  0  0  0  0  0
   -3.9206   -1.3069   -0.1612 H   0  0  0  0  0  0  0  0  0  0  0  0
   -3.5999   -2.8460    0.6684 H   0  0  0  0  0  0  0  0  0  0  0  0
  1  2  1  0
  2  3  2  0
  2  4  1  0
  4  5  1  0
  5  6  1  0
  6  7  1  0
  7  8  1  0
  8  9  1  0
  9 10  2  0
 10 11  1  0
 11 12  2  0
 12 13  1  0
 13 14  2  0
 13 15  1  0
 15 16  1  0
 16 17  1  0
 17 18  1  0
 18 19  1  0
 19 20  1  0
 20 21  2  0
 20 22  1  0
 22 23  1  0
 22 24  1  0
 24 25  1  0
 25 26  2  0
 25 27  1  0
 27 28  1  0
 27 29  1  0
 29 30  1  0
 30 31  2  0
 30 32  1  0
 32 33  1  0
 32 34  1  0
 34 35  1  0
 35 36  2  0
 35 37  1  0
 37 38  1  0
 37 39  1  0
 39 40  1  0
 40 41  2  0
 40 42  1  0
 42 43  1  0
 42 44  1  0
 44 45  1  0
 45 46  2  0
 45 47  1  0
 47 48  1  0
 47 49  1  0
 49 50  1  0
 50 51  2  0
 18 52  1  0
 52 53  2  0
 52 54  1  0
 54 55  1  0
 55 56  1  0
 55 57  1  0
 57 58  2  0
 57 59  1  0
 59 60  1  0
 60 61  1  0
 60 62  1  0
 62 63  2  0
 62 64  1  0
 64 65  1  0
 65 66  1  0
 65 67  1  0
 67 68  2  0
 67 69  1  0
 69 70  1  0
 70 71  1  0
 70 72  1  0
 72 73  2  0
 72 74  1  0
 74 75  1  0
 75 76  1  0
 75 77  1  0
 77 78  2  0
 77 79  1  0
 79 80  1  0
 80 81  1  0
 81 82  1  0
 81 83  2  0
 80 84  1  0
 84 85  1  0
 85 86  1  0
 50  5  1  0
 14  9  1  0
 86 11  1  0
  1 87  1  0
  1 88  1  0
  1 89  1  0
  4 90  1  0
  5 91  1  1
  6 92  1  0
  6 93  1  0
  8 94  1  0
  8 95  1  0
 10 96  1  0
 12 97  1  0
 14 98  1  0
 15 99  1  0
 15100  1  0
 17101  1  0
 17102  1  0
 18103  1  1
 19104  1  0
 22105  1  6
 23106  1  0
 23107  1  0
 23108  1  0
 24109  1  0
 27110  1  1
 28111  1  0
 28112  1  0
 28113  1  0
 29114  1  0
 32115  1  6
 33116  1  0
 33117  1  0
 33118  1  0
 34119  1  0
 37120  1  6
 38121  1  0
 38122  1  0
 38123  1  0
 39124  1  0
 42125  1  1
 43126  1  0
 43127  1  0
 43128  1  0
 44129  1  0
 47130  1  6
 48131  1  0
 48132  1  0
 48133  1  0
 49134  1  0
 54135  1  0
 55136  1  6
 56137  1  0
 56138  1  0
 56139  1  0
 59140  1  0
 60141  1  1
 61142  1  0
 61143  1  0
 61144  1  0
 64145  1  0
 65146  1  6
 66147  1  0
 66148  1  0
 66149  1  0
 69150  1  0
 70151  1  1
 71152  1  0
 71153  1  0
 71154  1  0
 74155  1  0
 75156  1  6
 76157  1  0
 76158  1  0
 76159  1  0
 79160  1  0
 80161  1  1
 82162  1  0
 82163  1  0
 84164  1  0
 84165  1  0
 86166  1  0
 86167  1  0
M  END
