
     RDKit          3D

147149  0  0  0  0  0  0  0  0999 V2000
   -4.0400    8.3026    0.5269 C   0  0  0  0  0  0  0  0  0  0  0  0
   -2.7677    7.7698    1.1115 C   0  0  0  0  0  0  0  0  0  0  0  0
   -1.9574    8.5661    1.6539 O   0  0  0  0  0  0  0  0  0  0  0  0
   -2.4280    6.3714    1.0506 N   0  0  0  0  0  0  0  0  0  0  0  0
   -3.2761    5.3518    0.4130 C   0  0  1  0  0  0  0  0  0  0  0  0
   -2.4703    4.0714    0.1103 C   0  0  0  0  0  0  0  0  0  0  0  0
   -1.7945    3.2977    1.6266 S   0  0  0  0  0  0  0  0  0  0  0  0
   -0.0112    3.5897    1.2728 C   0  0  0  0  0  0  0  0  0  0  0  0
    0.6097    2.6816    0.2277 C   0  0  0  0  0  0  0  0  0  0  0  0
   -0.0160    1.5028   -0.2222 C   0  0  0  0  0  0  0  0  0  0  0  0
    0.6268    0.6709   -1.1483 C   0  0  0  0  0  0  0  0  0  0  0  0
    1.8892    1.0304   -1.6455 C   0  0  0  0  0  0  0  0  0  0  0  0
    2.5196    2.2112   -1.2259 C   0  0  0  0  0  0  0  0  0  0  0  0
    1.8816    3.0156   -0.2648 C   0  0  0  0  0  0  0  0  0  0  0  0
    3.9199    2.4788   -1.7315 C   0  0  0  0  0  0  0  0  0  0  0  0
    4.4897    4.2086   -1.5170 S   0  0  0  0  0  0  0  0  0  0  0  0
    5.3481    3.9483    0.0857 C   0  0  0  0  0  0  0  0  0  0  0  0
    6.7982    3.4816   -0.1167 C   0  0  1  0  0  0  0  0  0  0  0  0
    7.6085    4.5469   -0.8090 C   0  0  0  0  0  0  0  0  0  0  0  0
    7.9749    5.7467   -0.1268 N   0  0  0  0  0  0  0  0  0  0  0  0
    7.9512    4.3821   -2.0100 O   0  0  0  0  0  0  0  0  0  0  0  0
    7.4009    3.1636    1.1827 N   0  0  0  0  0  0  0  0  0  0  0  0
    8.6469    2.4555    1.2846 C   0  0  0  0  0  0  0  0  0  0  0  0
    9.5972    2.9863    1.9208 O   0  0  0  0  0  0  0  0  0  0  0  0
    8.8407    1.0898    0.6485 C   0  0  1  0  0  0  0  0  0  0  0  0
    9.6239    1.2395   -0.6628 C   0  0  0  0  0  0  0  0  0  0  0  0
    9.5660    0.2047    1.5687 N   0  0  0  0  0  0  0  0  0  0  0  0
    9.7313   -1.2057    1.3801 C   0  0  0  0  0  0  0  0  0  0  0  0
   10.7757   -1.7518    1.8427 O   0  0  0  0  0  0  0  0  0  0  0  0
    8.6787   -2.0427    0.6743 C   0  0  1  0  0  0  0  0  0  0  0  0
    9.1464   -3.5044    0.5296 C   0  0  0  0  0  0  0  0  0  0  0  0
    7.4171   -1.9880    1.4308 N   0  0  0  0  0  0  0  0  0  0  0  0
    6.0977   -2.1082    0.8553 C   0  0  0  0  0  0  0  0  0  0  0  0
    5.1210   -1.6496    1.5101 O   0  0  0  0  0  0  0  0  0  0  0  0
    5.8215   -2.8088   -0.4592 C   0  0  1  0  0  0  0  0  0  0  0  0
    5.4929   -4.3035   -0.2593 C   0  0  0  0  0  0  0  0  0  0  0  0
    4.7852   -2.0816   -1.2166 N   0  0  0  0  0  0  0  0  0  0  0  0
    3.3970   -2.4390   -1.3507 C   0  0  0  0  0  0  0  0  0  0  0  0
    2.8393   -2.2483   -2.4599 O   0  0  0  0  0  0  0  0  0  0  0  0
    2.5726   -2.9100   -0.1729 C   0  0  1  0  0  0  0  0  0  0  0  0
    1.6691   -1.8087    0.4305 C   0  0  0  0  0  0  0  0  0  0  0  0
   -0.0930   -1.7797   -0.0792 S   0  0  0  0  0  0  0  0  0  0  0  0
    0.0225   -0.6569   -1.5214 C   0  0  0  0  0  0  0  0  0  0  0  0
    1.8984   -4.1954   -0.4061 N   0  0  0  0  0  0  0  0  0  0  0  0
    0.8553   -4.4619   -1.3619 C   0  0  0  0  0  0  0  0  0  0  0  0
    0.7516   -3.7688   -2.4072 O   0  0  0  0  0  0  0  0  0  0  0  0
   -0.1140   -5.6003   -1.1696 C   0  0  1  0  0  0  0  0  0  0  0  0
    0.3436   -6.8384   -1.9345 C   0  0  0  0  0  0  0  0  0  0  0  0
   -0.2718   -5.9055    0.2539 N   0  0  0  0  0  0  0  0  0  0  0  0
   -1.2527   -5.2484    1.0697 C   0  0  0  0  0  0  0  0  0  0  0  0
   -0.8957   -4.7364    2.1628 O   0  0  0  0  0  0  0  0  0  0  0  0
   -2.7203   -5.2895    0.7222 C   0  0  1  0  0  0  0  0  0  0  0  0
   -3.4372   -6.3186    1.6034 C   0  0  0  0  0  0  0  0  0  0  0  0
   -3.3189   -3.9669    0.9122 N   0  0  0  0  0  0  0  0  0  0  0  0
   -3.9378   -3.2576   -0.1651 C   0  0  0  0  0  0  0  0  0  0  0  0
   -3.2530   -2.4165   -0.8152 O   0  0  0  0  0  0  0  0  0  0  0  0
   -5.3864   -3.4746   -0.5179 C   0  0  1  0  0  0  0  0  0  0  0  0
   -5.5553   -4.7304   -1.3789 C   0  0  0  0  0  0  0  0  0  0  0  0
   -6.1995   -3.5845    0.6951 N   0  0  0  0  0  0  0  0  0  0  0  0
   -7.3981   -2.8387    0.9511 C   0  0  0  0  0  0  0  0  0  0  0  0
   -7.7107   -2.5827    2.1443 O   0  0  0  0  0  0  0  0  0  0  0  0
   -8.3481   -2.4292   -0.1523 C   0  0  1  0  0  0  0  0  0  0  0  0
   -9.6025   -3.3083   -0.1122 C   0  0  0  0  0  0  0  0  0  0  0  0
   -8.7254   -1.0190    0.0085 N   0  0  0  0  0  0  0  0  0  0  0  0
   -8.0729    0.0351   -0.7306 C   0  0  0  0  0  0  0  0  0  0  0  0
   -7.0497   -0.2343   -1.4150 O   0  0  0  0  0  0  0  0  0  0  0  0
   -8.5744    1.4678   -0.7288 C   0  0  1  0  0  0  0  0  0  0  0  0
   -9.8620    1.6859    0.0725 C   0  0  0  0  0  0  0  0  0  0  0  0
   -7.5178    2.3474   -0.2119 N   0  0  0  0  0  0  0  0  0  0  0  0
   -6.7151    3.1601   -1.0836 C   0  0  0  0  0  0  0  0  0  0  0  0
   -6.5876    2.8215   -2.2987 O   0  0  0  0  0  0  0  0  0  0  0  0
   -6.1120    4.4747   -0.6361 C   0  0  1  0  0  0  0  0  0  0  0  0
   -7.1321    5.5967   -0.8271 C   0  0  0  0  0  0  0  0  0  0  0  0
   -5.6850    4.4398    0.7683 N   0  0  0  0  0  0  0  0  0  0  0  0
   -4.4784    5.0342    1.2836 C   0  0  0  0  0  0  0  0  0  0  0  0
   -4.4060    5.2650    2.5230 O   0  0  0  0  0  0  0  0  0  0  0  0
   -4.1027    9.4026    0.6877 H   0  0  0  0  0  0  0  0  0  0  0  0
   -4.9071    7.8234    1.0224 H   0  0  0  0  0  0  0  0  0  0  0  0
   -4.0673    8.1055   -0.5652 H   0  0  0  0  0  0  0  0  0  0  0  0
   -1.5005    6.1083    1.4375 H   0  0  0  0  0  0  0  0  0  0  0  0
   -3.6111    5.7792   -0.5598 H   0  0  0  0  0  0  0  0  0  0  0  0
   -1.6725    4.2937   -0.6250 H   0  0  0  0  0  0  0  0  0  0  0  0
   -3.1398    3.3326   -0.3624 H   0  0  0  0  0  0  0  0  0  0  0  0
    0.5389    3.4493    2.2269 H   0  0  0  0  0  0  0  0  0  0  0  0
    0.1400    4.6452    0.9631 H   0  0  0  0  0  0  0  0  0  0  0  0
   -0.9741    1.1841    0.1866 H   0  0  0  0  0  0  0  0  0  0  0  0
    2.4054    0.3674   -2.3284 H   0  0  0  0  0  0  0  0  0  0  0  0
    2.3580    3.9054    0.1198 H   0  0  0  0  0  0  0  0  0  0  0  0
    4.6265    1.7664   -1.2624 H   0  0  0  0  0  0  0  0  0  0  0  0
    3.9411    2.2749   -2.8249 H   0  0  0  0  0  0  0  0  0  0  0  0
    4.7948    3.2073    0.7079 H   0  0  0  0  0  0  0  0  0  0  0  0
    5.3349    4.9077    0.6439 H   0  0  0  0  0  0  0  0  0  0  0  0
    6.7835    2.5586   -0.7479 H   0  0  0  0  0  0  0  0  0  0  0  0
    8.4409    6.5212   -0.6501 H   0  0  0  0  0  0  0  0  0  0  0  0
    7.7549    5.8862    0.8821 H   0  0  0  0  0  0  0  0  0  0  0  0
    7.1461    3.7611    2.0049 H   0  0  0  0  0  0  0  0  0  0  0  0
    7.8414    0.6504    0.4334 H   0  0  0  0  0  0  0  0  0  0  0  0
    9.0870    1.9104   -1.3698 H   0  0  0  0  0  0  0  0  0  0  0  0
   10.6351    1.6633   -0.4588 H   0  0  0  0  0  0  0  0  0  0  0  0
    9.7509    0.2526   -1.1556 H   0  0  0  0  0  0  0  0  0  0  0  0
   10.1848    0.6413    2.2941 H   0  0  0  0  0  0  0  0  0  0  0  0
    8.5290   -1.6219   -0.3446 H   0  0  0  0  0  0  0  0  0  0  0  0
    8.4641   -4.0721   -0.1228 H   0  0  0  0  0  0  0  0  0  0  0  0
   10.1458   -3.5453    0.0434 H   0  0  0  0  0  0  0  0  0  0  0  0
    9.2072   -3.9957    1.5281 H   0  0  0  0  0  0  0  0  0  0  0  0
    7.4586   -1.6739    2.4283 H   0  0  0  0  0  0  0  0  0  0  0  0
    6.7411   -2.7716   -1.0825 H   0  0  0  0  0  0  0  0  0  0  0  0
    4.9615   -4.4879    0.6970 H   0  0  0  0  0  0  0  0  0  0  0  0
    6.4218   -4.9055   -0.2252 H   0  0  0  0  0  0  0  0  0  0  0  0
    4.8898   -4.6853   -1.1079 H   0  0  0  0  0  0  0  0  0  0  0  0
    5.1342   -1.3615   -1.8964 H   0  0  0  0  0  0  0  0  0  0  0  0
    3.2876   -3.0934    0.6450 H   0  0  0  0  0  0  0  0  0  0  0  0
    1.6330   -1.9612    1.5292 H   0  0  0  0  0  0  0  0  0  0  0  0
    2.1517   -0.8202    0.3142 H   0  0  0  0  0  0  0  0  0  0  0  0
    0.5847   -1.1485   -2.3404 H   0  0  0  0  0  0  0  0  0  0  0  0
   -1.0072   -0.4801   -1.9016 H   0  0  0  0  0  0  0  0  0  0  0  0
    2.2139   -4.9940    0.1862 H   0  0  0  0  0  0  0  0  0  0  0  0
   -1.0911   -5.2798   -1.6003 H   0  0  0  0  0  0  0  0  0  0  0  0
    0.3293   -6.6344   -3.0258 H   0  0  0  0  0  0  0  0  0  0  0  0
    1.3736   -7.1417   -1.6385 H   0  0  0  0  0  0  0  0  0  0  0  0
   -0.3464   -7.6856   -1.7296 H   0  0  0  0  0  0  0  0  0  0  0  0
    0.5154   -6.3812    0.7508 H   0  0  0  0  0  0  0  0  0  0  0  0
   -2.8552   -5.6104   -0.3289 H   0  0  0  0  0  0  0  0  0  0  0  0
   -4.5087   -6.3750    1.3205 H   0  0  0  0  0  0  0  0  0  0  0  0
   -3.3780   -6.0162    2.6643 H   0  0  0  0  0  0  0  0  0  0  0  0
   -2.9801   -7.3217    1.4757 H   0  0  0  0  0  0  0  0  0  0  0  0
   -3.2307   -3.4904    1.8371 H   0  0  0  0  0  0  0  0  0  0  0  0
   -5.7075   -2.6027   -1.1239 H   0  0  0  0  0  0  0  0  0  0  0  0
   -4.8955   -4.6775   -2.2702 H   0  0  0  0  0  0  0  0  0  0  0  0
   -6.6037   -4.8048   -1.7271 H   0  0  0  0  0  0  0  0  0  0  0  0
   -5.3111   -5.6496   -0.8044 H   0  0  0  0  0  0  0  0  0  0  0  0
   -5.8522   -4.1948    1.4801 H   0  0  0  0  0  0  0  0  0  0  0  0
   -7.8908   -2.5950   -1.1476 H   0  0  0  0  0  0  0  0  0  0  0  0
  -10.2890   -3.0328   -0.9429 H   0  0  0  0  0  0  0  0  0  0  0  0
   -9.3272   -4.3811   -0.2233 H   0  0  0  0  0  0  0  0  0  0  0  0
  -10.1437   -3.1832    0.8537 H   0  0  0  0  0  0  0  0  0  0  0  0
   -9.4196   -0.7862    0.7538 H   0  0  0  0  0  0  0  0  0  0  0  0
   -8.8099    1.7331   -1.7843 H   0  0  0  0  0  0  0  0  0  0  0  0
  -10.6700    1.0313   -0.3122 H   0  0  0  0  0  0  0  0  0  0  0  0
   -9.7092    1.4889    1.1532 H   0  0  0  0  0  0  0  0  0  0  0  0
  -10.1930    2.7423   -0.0336 H   0  0  0  0  0  0  0  0  0  0  0  0
   -7.3314    2.3410    0.8134 H   0  0  0  0  0  0  0  0  0  0  0  0
   -5.2573    4.6736   -1.3065 H   0  0  0  0  0  0  0  0  0  0  0  0
   -6.6767    6.5686   -0.5345 H   0  0  0  0  0  0  0  0  0  0  0  0
   -8.0324    5.4179   -0.1975 H   0  0  0  0  0  0  0  0  0  0  0  0
   -7.4367    5.6562   -1.8915 H   0  0  0  0  0  0  0  0  0  0  0  0
   -6.4123    4.2104    1.4885 H   0  0  0  0  0  0  0  0  0  0  0  0
  1  2  1  0
  2  3  2  0
  2  4  1  0
  4  5  1  0
  5  6  1  0
  6  7  1  0
  7  8  1  0
  8  9  1  0
  9 10  2  0
 10 11  1  0
 11 12  2  0
 12 13  1  0
 13 14  2  0
 13 15  1  0
 15 16  1  0
 16 17  1  0
 17 18  1  0
 18 19  1  0
 19 20  1  0
 19 21  2  0
 18 22  1  0
 22 23  1  0
 23 24  2  0
 23 25  1  0
 25 26  1  0
 25 27  1  0
 27 28  1  0
 28 29  2  0
 28 30  1  0
 30 31  1  0
 30 32  1  0
 32 33  1  0
 33 34  2  0
 33 35  1  0
 35 36  1  0
 35 37  1  0
 37 38  1  0
 38 39  2  0
 38 40  1  0
 40 41  1  0
 41 42  1  0
 42 43  1  0
 40 44  1  0
 44 45  1  0
 45 46  2  0
 45 47  1  0
 47 48  1  0
 47 49  1  0
 49 50  1  0
 50 51  2  0
 50 52  1  0
 52 53  1  0
 52 54  1  0
 54 55  1  0
 55 56  2  0
 55 57  1  0
 57 58  1  0
 57 59  1  0
 59 60  1  0
 60 61  2  0
 60 62  1  0
 62 63  1  0
 62 64  1  0
 64 65  1  0
 65 66  2  0
 65 67  1  0
 67 68  1  0
 67 69  1  0
 69 70  1  0
 70 71  2  0
 70 72  1  0
 72 73  1  0
 72 74  1  0
 74 75  1  0
 75 76  2  0
 75  5  1  0
 14  9  1  0
 43 11  1  0
  1 77  1  0
  1 78  1  0
  1 79  1  0
  4 80  1  0
  5 81  1  6
  6 82  1  0
  6 83  1  0
  8 84  1  0
  8 85  1  0
 10 86  1  0
 12 87  1  0
 14 88  1  0
 15 89  1  0
 15 90  1  0
 17 91  1  0
 17 92  1  0
 18 93  1  6
 20 94  1  0
 20 95  1  0
 22 96  1  0
 25 97  1  6
 26 98  1  0
 26 99  1  0
 26100  1  0
 27101  1  0
 30102  1  6
 31103  1  0
 31104  1  0
 31105  1  0
 32106  1  0
 35107  1  6
 36108  1  0
 36109  1  0
 36110  1  0
 37111  1  0
 40112  1  1
 41113  1  0
 41114  1  0
 43115  1  0
 43116  1  0
 44117  1  0
 47118  1  6
 48119  1  0
 48120  1  0
 48121  1  0
 49122  1  0
 52123  1  6
 53124  1  0
 53125  1  0
 53126  1  0
 54127  1  0
 57128  1  6
 58129  1  0
 58130  1  0
 58131  1  0
 59132  1  0
 62133  1  6
 63134  1  0
 63135  1  0
 63136  1  0
 64137  1  0
 67138  1  6
 68139  1  0
 68140  1  0
 68141  1  0
 69142  1  0
 72143  1  6
 73144  1  0
 73145  1  0
 73146  1  0
 74147  1  0
M  END
