
     RDKit          3D

167169  0  0  0  0  0  0  0  0999 V2000
    6.9841   -8.1814    1.0384 C   0  0  0  0  0  0  0  0  0  0  0  0
    5.8067   -7.5104    1.6624 C   0  0  0  0  0  0  0  0  0  0  0  0
    4.9818   -8.1919    2.3309 O   0  0  0  0  0  0  0  0  0  0  0  0
    5.6064   -6.1002    1.5232 N   0  0  0  0  0  0  0  0  0  0  0  0
    4.9568   -5.5094    0.3499 C   0  0  2  0  0  0  0  0  0  0  0  0
    3.5662   -6.1284    0.1276 C   0  0  0  0  0  0  0  0  0  0  0  0
    2.6072   -5.1897   -1.1239 S   0  0  0  0  0  0  0  0  0  0  0  0
    1.6414   -4.1961    0.0708 C   0  0  0  0  0  0  0  0  0  0  0  0
    0.4917   -3.4783   -0.5960 C   0  0  0  0  0  0  0  0  0  0  0  0
    0.2648   -2.1195   -0.3322 C   0  0  0  0  0  0  0  0  0  0  0  0
   -0.8750   -1.4674   -0.8333 C   0  0  0  0  0  0  0  0  0  0  0  0
   -1.7885   -2.1984   -1.6127 C   0  0  0  0  0  0  0  0  0  0  0  0
   -1.5518   -3.5483   -1.9180 C   0  0  0  0  0  0  0  0  0  0  0  0
   -0.4214   -4.1876   -1.3922 C   0  0  0  0  0  0  0  0  0  0  0  0
   -2.5330   -4.3090   -2.7691 C   0  0  0  0  0  0  0  0  0  0  0  0
   -3.3605   -5.6515   -1.8405 S   0  0  0  0  0  0  0  0  0  0  0  0
   -3.9801   -4.6155   -0.4606 C   0  0  0  0  0  0  0  0  0  0  0  0
   -5.0299   -5.3675    0.3734 C   0  0  1  0  0  0  0  0  0  0  0  0
   -4.5139   -6.6684    0.9230 C   0  0  0  0  0  0  0  0  0  0  0  0
   -5.3794   -7.8034    1.0105 N   0  0  0  0  0  0  0  0  0  0  0  0
   -3.3287   -6.7556    1.3572 O   0  0  0  0  0  0  0  0  0  0  0  0
   -5.4536   -4.5234    1.4939 N   0  0  0  0  0  0  0  0  0  0  0  0
   -6.8151   -4.2011    1.8299 C   0  0  0  0  0  0  0  0  0  0  0  0
   -7.0532   -3.7482    2.9837 O   0  0  0  0  0  0  0  0  0  0  0  0
   -7.9452   -4.3184    0.8229 C   0  0  1  0  0  0  0  0  0  0  0  0
   -9.3325   -4.1850    1.4698 C   0  0  0  0  0  0  0  0  0  0  0  0
   -7.7706   -3.3517   -0.2724 N   0  0  0  0  0  0  0  0  0  0  0  0
   -7.3778   -1.9868   -0.0731 C   0  0  0  0  0  0  0  0  0  0  0  0
   -6.2155   -1.6351   -0.4153 O   0  0  0  0  0  0  0  0  0  0  0  0
   -8.3198   -0.9792    0.5369 C   0  0  1  0  0  0  0  0  0  0  0  0
   -7.7414   -0.3588    1.8142 C   0  0  0  0  0  0  0  0  0  0  0  0
   -8.7109    0.0583   -0.4279 N   0  0  0  0  0  0  0  0  0  0  0  0
   -7.8555    1.1438   -0.8433 C   0  0  0  0  0  0  0  0  0  0  0  0
   -6.6143    0.9711   -0.9430 O   0  0  0  0  0  0  0  0  0  0  0  0
   -8.4200    2.5240   -1.0463 C   0  0  1  0  0  0  0  0  0  0  0  0
   -9.5624    2.5433   -2.0655 C   0  0  0  0  0  0  0  0  0  0  0  0
   -8.8919    3.0329    0.2442 N   0  0  0  0  0  0  0  0  0  0  0  0
   -8.0795    3.8640    1.0904 C   0  0  0  0  0  0  0  0  0  0  0  0
   -8.0142    3.5917    2.3254 O   0  0  0  0  0  0  0  0  0  0  0  0
   -7.3412    5.0686    0.5477 C   0  0  1  0  0  0  0  0  0  0  0  0
   -8.3300    6.0655   -0.0573 C   0  0  0  0  0  0  0  0  0  0  0  0
   -6.5798    5.7282    1.6202 N   0  0  0  0  0  0  0  0  0  0  0  0
   -5.1493    5.8851    1.6718 C   0  0  0  0  0  0  0  0  0  0  0  0
   -4.6440    6.4314    2.6903 O   0  0  0  0  0  0  0  0  0  0  0  0
   -4.2342    5.4849    0.5312 C   0  0  1  0  0  0  0  0  0  0  0  0
   -4.2395    6.5677   -0.5494 C   0  0  0  0  0  0  0  0  0  0  0  0
   -2.8656    5.2794    1.0159 N   0  0  0  0  0  0  0  0  0  0  0  0
   -2.3467    3.9645    1.2522 C   0  0  0  0  0  0  0  0  0  0  0  0
   -2.3218    3.5216    2.4335 O   0  0  0  0  0  0  0  0  0  0  0  0
   -1.7989    3.1178    0.1278 C   0  0  1  0  0  0  0  0  0  0  0  0
   -2.8483    2.1169   -0.3759 C   0  0  0  0  0  0  0  0  0  0  0  0
   -2.1253    0.9278   -1.5763 S   0  0  0  0  0  0  0  0  0  0  0  0
   -1.1924   -0.0752   -0.3499 C   0  0  0  0  0  0  0  0  0  0  0  0
   -1.3421    3.9727   -0.9682 N   0  0  0  0  0  0  0  0  0  0  0  0
    0.0524    4.1769   -1.2287 C   0  0  0  0  0  0  0  0  0  0  0  0
    0.8243    3.1828   -1.2865 O   0  0  0  0  0  0  0  0  0  0  0  0
    0.6365    5.5648   -1.3278 C   0  0  1  0  0  0  0  0  0  0  0  0
   -0.3395    6.5783   -1.9300 C   0  0  0  0  0  0  0  0  0  0  0  0
    1.0364    6.0003    0.0149 N   0  0  0  0  0  0  0  0  0  0  0  0
    2.3913    6.1207    0.4825 C   0  0  0  0  0  0  0  0  0  0  0  0
    2.6144    6.8281    1.5021 O   0  0  0  0  0  0  0  0  0  0  0  0
    3.5568    5.4484   -0.2132 C   0  0  1  0  0  0  0  0  0  0  0  0
    4.3114    6.4779   -1.0574 C   0  0  0  0  0  0  0  0  0  0  0  0
    4.4621    4.8241    0.7672 N   0  0  0  0  0  0  0  0  0  0  0  0
    5.4555    3.8557    0.3873 C   0  0  0  0  0  0  0  0  0  0  0  0
    5.5783    3.5197   -0.8200 O   0  0  0  0  0  0  0  0  0  0  0  0
    6.3067    3.2023    1.4481 C   0  0  1  0  0  0  0  0  0  0  0  0
    5.6970    1.8746    1.9150 C   0  0  0  0  0  0  0  0  0  0  0  0
    7.6949    3.0403    1.0073 N   0  0  0  0  0  0  0  0  0  0  0  0
    8.1660    2.0027    0.1292 C   0  0  0  0  0  0  0  0  0  0  0  0
    7.3660    1.4225   -0.6521 O   0  0  0  0  0  0  0  0  0  0  0  0
    9.5922    1.5230    0.2016 C   0  0  1  0  0  0  0  0  0  0  0  0
   10.6007    2.6701    0.1361 C   0  0  0  0  0  0  0  0  0  0  0  0
    9.7783    0.7656    1.4432 N   0  0  0  0  0  0  0  0  0  0  0  0
    9.8724   -0.6656    1.5459 C   0  0  0  0  0  0  0  0  0  0  0  0
    9.8902   -1.1835    2.6958 O   0  0  0  0  0  0  0  0  0  0  0  0
   10.0411   -1.5628    0.3375 C   0  0  1  0  0  0  0  0  0  0  0  0
   11.4977   -1.5462   -0.1261 C   0  0  0  0  0  0  0  0  0  0  0  0
    9.6470   -2.9356    0.6609 N   0  0  0  0  0  0  0  0  0  0  0  0
    8.8872   -3.7245   -0.2577 C   0  0  0  0  0  0  0  0  0  0  0  0
    9.4939   -4.5258   -1.0204 O   0  0  0  0  0  0  0  0  0  0  0  0
    7.3750   -3.6618   -0.2616 C   0  0  1  0  0  0  0  0  0  0  0  0
    6.8692   -2.2688   -0.6351 C   0  0  0  0  0  0  0  0  0  0  0  0
    6.8244   -4.6413   -1.2057 N   0  0  0  0  0  0  0  0  0  0  0  0
    5.8524   -5.6443   -0.8672 C   0  0  0  0  0  0  0  0  0  0  0  0
    5.7251   -6.6427   -1.6239 O   0  0  0  0  0  0  0  0  0  0  0  0
    6.6419   -8.9037    0.2690 H   0  0  0  0  0  0  0  0  0  0  0  0
    7.6538   -7.4332    0.5626 H   0  0  0  0  0  0  0  0  0  0  0  0
    7.5590   -8.7250    1.8171 H   0  0  0  0  0  0  0  0  0  0  0  0
    5.7466   -5.5062    2.3699 H   0  0  0  0  0  0  0  0  0  0  0  0
    4.7927   -4.4258    0.5513 H   0  0  0  0  0  0  0  0  0  0  0  0
    3.6617   -7.1787   -0.2206 H   0  0  0  0  0  0  0  0  0  0  0  0
    3.0219   -6.1725    1.0944 H   0  0  0  0  0  0  0  0  0  0  0  0
    1.2095   -4.8564    0.8501 H   0  0  0  0  0  0  0  0  0  0  0  0
    2.3260   -3.4715    0.5548 H   0  0  0  0  0  0  0  0  0  0  0  0
    0.9476   -1.5786    0.3157 H   0  0  0  0  0  0  0  0  0  0  0  0
   -2.6964   -1.7306   -1.9701 H   0  0  0  0  0  0  0  0  0  0  0  0
   -0.2716   -5.2467   -1.5744 H   0  0  0  0  0  0  0  0  0  0  0  0
   -3.3069   -3.6339   -3.1888 H   0  0  0  0  0  0  0  0  0  0  0  0
   -1.9860   -4.7591   -3.6277 H   0  0  0  0  0  0  0  0  0  0  0  0
   -4.4473   -3.6995   -0.8773 H   0  0  0  0  0  0  0  0  0  0  0  0
   -3.1322   -4.3188    0.1919 H   0  0  0  0  0  0  0  0  0  0  0  0
   -5.8774   -5.5893   -0.3041 H   0  0  0  0  0  0  0  0  0  0  0  0
   -5.0368   -8.6968    1.4297 H   0  0  0  0  0  0  0  0  0  0  0  0
   -6.3560   -7.7538    0.6400 H   0  0  0  0  0  0  0  0  0  0  0  0
   -4.7167   -4.2398    2.1807 H   0  0  0  0  0  0  0  0  0  0  0  0
   -7.9255   -5.3405    0.3959 H   0  0  0  0  0  0  0  0  0  0  0  0
  -10.1179   -4.1411    0.6859 H   0  0  0  0  0  0  0  0  0  0  0  0
   -9.5256   -5.0699    2.1123 H   0  0  0  0  0  0  0  0  0  0  0  0
   -9.4040   -3.2876    2.1113 H   0  0  0  0  0  0  0  0  0  0  0  0
   -7.5735   -3.7495   -1.2186 H   0  0  0  0  0  0  0  0  0  0  0  0
   -9.2469   -1.5080    0.8275 H   0  0  0  0  0  0  0  0  0  0  0  0
   -8.4661    0.3650    2.2437 H   0  0  0  0  0  0  0  0  0  0  0  0
   -7.5558   -1.1462    2.5728 H   0  0  0  0  0  0  0  0  0  0  0  0
   -6.7854    0.1711    1.6128 H   0  0  0  0  0  0  0  0  0  0  0  0
   -9.7307    0.1484   -0.6142 H   0  0  0  0  0  0  0  0  0  0  0  0
   -7.6191    3.1727   -1.4599 H   0  0  0  0  0  0  0  0  0  0  0  0
  -10.4659    2.0225   -1.6808 H   0  0  0  0  0  0  0  0  0  0  0  0
   -9.2410    2.0586   -3.0120 H   0  0  0  0  0  0  0  0  0  0  0  0
   -9.8418    3.5947   -2.2889 H   0  0  0  0  0  0  0  0  0  0  0  0
   -9.6482    2.4891    0.7065 H   0  0  0  0  0  0  0  0  0  0  0  0
   -6.6656    4.7399   -0.2603 H   0  0  0  0  0  0  0  0  0  0  0  0
   -8.7734    5.6482   -0.9820 H   0  0  0  0  0  0  0  0  0  0  0  0
   -7.8023    7.0072   -0.3259 H   0  0  0  0  0  0  0  0  0  0  0  0
   -9.1400    6.3050    0.6658 H   0  0  0  0  0  0  0  0  0  0  0  0
   -7.1255    6.1170    2.4222 H   0  0  0  0  0  0  0  0  0  0  0  0
   -4.5908    4.5356    0.0909 H   0  0  0  0  0  0  0  0  0  0  0  0
   -3.6612    6.2328   -1.4333 H   0  0  0  0  0  0  0  0  0  0  0  0
   -5.2762    6.7815   -0.8840 H   0  0  0  0  0  0  0  0  0  0  0  0
   -3.7856    7.5084   -0.1645 H   0  0  0  0  0  0  0  0  0  0  0  0
   -2.3593    6.0843    1.4504 H   0  0  0  0  0  0  0  0  0  0  0  0
   -0.9364    2.5553    0.5472 H   0  0  0  0  0  0  0  0  0  0  0  0
   -3.6716    2.6574   -0.8934 H   0  0  0  0  0  0  0  0  0  0  0  0
   -3.3015    1.5597    0.4727 H   0  0  0  0  0  0  0  0  0  0  0  0
   -0.2444    0.4649   -0.1412 H   0  0  0  0  0  0  0  0  0  0  0  0
   -1.7616   -0.1594    0.6033 H   0  0  0  0  0  0  0  0  0  0  0  0
   -2.0379    4.5629   -1.4679 H   0  0  0  0  0  0  0  0  0  0  0  0
    1.5103    5.5294   -2.0105 H   0  0  0  0  0  0  0  0  0  0  0  0
   -1.1970    6.7539   -1.2445 H   0  0  0  0  0  0  0  0  0  0  0  0
    0.1826    7.5473   -2.0866 H   0  0  0  0  0  0  0  0  0  0  0  0
   -0.7159    6.2240   -2.9098 H   0  0  0  0  0  0  0  0  0  0  0  0
    0.2739    6.2706    0.6816 H   0  0  0  0  0  0  0  0  0  0  0  0
    3.1758    4.6448   -0.8802 H   0  0  0  0  0  0  0  0  0  0  0  0
    4.7400    7.2718   -0.4052 H   0  0  0  0  0  0  0  0  0  0  0  0
    5.1363    5.9927   -1.6180 H   0  0  0  0  0  0  0  0  0  0  0  0
    3.6224    6.9466   -1.7925 H   0  0  0  0  0  0  0  0  0  0  0  0
    4.4426    5.1433    1.7596 H   0  0  0  0  0  0  0  0  0  0  0  0
    6.3190    3.8728    2.3354 H   0  0  0  0  0  0  0  0  0  0  0  0
    5.4799    1.2125    1.0523 H   0  0  0  0  0  0  0  0  0  0  0  0
    4.7438    2.0649    2.4576 H   0  0  0  0  0  0  0  0  0  0  0  0
    6.3970    1.3582    2.6059 H   0  0  0  0  0  0  0  0  0  0  0  0
    8.3670    3.8032    1.2601 H   0  0  0  0  0  0  0  0  0  0  0  0
    9.7929    0.8958   -0.6878 H   0  0  0  0  0  0  0  0  0  0  0  0
   10.3791    3.3305   -0.7298 H   0  0  0  0  0  0  0  0  0  0  0  0
   11.6237    2.2569    0.0084 H   0  0  0  0  0  0  0  0  0  0  0  0
   10.5926    3.2706    1.0697 H   0  0  0  0  0  0  0  0  0  0  0  0
    9.7180    1.2992    2.3394 H   0  0  0  0  0  0  0  0  0  0  0  0
    9.4082   -1.1987   -0.4915 H   0  0  0  0  0  0  0  0  0  0  0  0
   11.8106   -0.5164   -0.3936 H   0  0  0  0  0  0  0  0  0  0  0  0
   11.6158   -2.1895   -1.0252 H   0  0  0  0  0  0  0  0  0  0  0  0
   12.1674   -1.9279    0.6763 H   0  0  0  0  0  0  0  0  0  0  0  0
   10.1876   -3.4476    1.3975 H   0  0  0  0  0  0  0  0  0  0  0  0
    7.0407   -3.8818    0.7733 H   0  0  0  0  0  0  0  0  0  0  0  0
    5.7634   -2.2847   -0.7325 H   0  0  0  0  0  0  0  0  0  0  0  0
    7.1300   -1.5328    0.1550 H   0  0  0  0  0  0  0  0  0  0  0  0
    7.3013   -1.9423   -1.6090 H   0  0  0  0  0  0  0  0  0  0  0  0
    7.1683   -4.6233   -2.1916 H   0  0  0  0  0  0  0  0  0  0  0  0
  1  2  1  0
  2  3  2  0
  2  4  1  0
  4  5  1  0
  5  6  1  0
  6  7  1  0
  7  8  1  0
  8  9  1  0
  9 10  2  0
 10 11  1  0
 11 12  2  0
 12 13  1  0
 13 14  2  0
 13 15  1  0
 15 16  1  0
 16 17  1  0
 17 18  1  0
 18 19  1  0
 19 20  1  0
 19 21  2  0
 18 22  1  0
 22 23  1  0
 23 24  2  0
 23 25  1  0
 25 26  1  0
 25 27  1  0
 27 28  1  0
 28 29  2  0
 28 30  1  0
 30 31  1  0
 30 32  1  0
 32 33  1  0
 33 34  2  0
 33 35  1  0
 35 36  1  0
 35 37  1  0
 37 38  1  0
 38 39  2  0
 38 40  1  0
 40 41  1  0
 40 42  1  0
 42 43  1  0
 43 44  2  0
 43 45  1  0
 45 46  1  0
 45 47  1  0
 47 48  1  0
 48 49  2  0
 48 50  1  0
 50 51  1  0
 51 52  1  0
 52 53  1  0
 50 54  1  0
 54 55  1  0
 55 56  2  0
 55 57  1  0
 57 58  1  0
 57 59  1  0
 59 60  1  0
 60 61  2  0
 60 62  1  0
 62 63  1  0
 62 64  1  0
 64 65  1  0
 65 66  2  0
 65 67  1  0
 67 68  1  0
 67 69  1  0
 69 70  1  0
 70 71  2  0
 70 72  1  0
 72 73  1  0
 72 74  1  0
 74 75  1  0
 75 76  2  0
 75 77  1  0
 77 78  1  0
 77 79  1  0
 79 80  1  0
 80 81  2  0
 80 82  1  0
 82 83  1  0
 82 84  1  0
 84 85  1  0
 85 86  2  0
 85  5  1  0
 14  9  1  0
 53 11  1  0
  1 87  1  0
  1 88  1  0
  1 89  1  0
  4 90  1  0
  5 91  1  1
  6 92  1  0
  6 93  1  0
  8 94  1  0
  8 95  1  0
 10 96  1  0
 12 97  1  0
 14 98  1  0
 15 99  1  0
 15100  1  0
 17101  1  0
 17102  1  0
 18103  1  6
 20104  1  0
 20105  1  0
 22106  1  0
 25107  1  6
 26108  1  0
 26109  1  0
 26110  1  0
 27111  1  0
 30112  1  1
 31113  1  0
 31114  1  0
 31115  1  0
 32116  1  0
 35117  1  6
 36118  1  0
 36119  1  0
 36120  1  0
 37121  1  0
 40122  1  6
 41123  1  0
 41124  1  0
 41125  1  0
 42126  1  0
 45127  1  6
 46128  1  0
 46129  1  0
 46130  1  0
 47131  1  0
 50132  1  1
 51133  1  0
 51134  1  0
 53135  1  0
 53136  1  0
 54137  1  0
 57138  1  6
 58139  1  0
 58140  1  0
 58141  1  0
 59142  1  0
 62143  1  6
 63144  1  0
 63145  1  0
 63146  1  0
 64147  1  0
 67148  1  1
 68149  1  0
 68150  1  0
 68151  1  0
 69152  1  0
 72153  1  6
 73154  1  0
 73155  1  0
 73156  1  0
 74157  1  0
 77158  1  6
 78159  1  0
 78160  1  0
 78161  1  0
 79162  1  0
 82163  1  1
 83164  1  0
 83165  1  0
 83166  1  0
 84167  1  0
M  END
