
     RDKit          3D

187189  0  0  0  0  0  0  0  0999 V2000
   -6.3734    8.4942   -3.6121 C   0  0  0  0  0  0  0  0  0  0  0  0
   -6.9848    7.3622   -2.8483 C   0  0  0  0  0  0  0  0  0  0  0  0
   -8.0776    6.8680   -3.2426 O   0  0  0  0  0  0  0  0  0  0  0  0
   -6.3755    6.9086   -1.6294 N   0  0  0  0  0  0  0  0  0  0  0  0
   -6.1219    5.4969   -1.3015 C   0  0  2  0  0  0  0  0  0  0  0  0
   -4.6971    5.1081   -1.7563 C   0  0  0  0  0  0  0  0  0  0  0  0
   -3.4751    5.5683   -0.4715 S   0  0  0  0  0  0  0  0  0  0  0  0
   -3.4460    3.9592    0.3985 C   0  0  0  0  0  0  0  0  0  0  0  0
   -2.2676    3.1527   -0.0770 C   0  0  0  0  0  0  0  0  0  0  0  0
   -0.9704    3.5818    0.2282 C   0  0  0  0  0  0  0  0  0  0  0  0
    0.1445    2.9006   -0.2741 C   0  0  0  0  0  0  0  0  0  0  0  0
   -0.0459    1.7809   -1.0951 C   0  0  0  0  0  0  0  0  0  0  0  0
   -1.3367    1.2833   -1.3413 C   0  0  0  0  0  0  0  0  0  0  0  0
   -2.4471    1.9882   -0.8377 C   0  0  0  0  0  0  0  0  0  0  0  0
   -1.5479    0.0916   -2.2434 C   0  0  0  0  0  0  0  0  0  0  0  0
   -0.2947   -1.2188   -1.9779 S   0  0  0  0  0  0  0  0  0  0  0  0
   -0.9981   -1.8825   -0.4244 C   0  0  0  0  0  0  0  0  0  0  0  0
   -0.0302   -2.9088    0.1979 C   0  0  1  0  0  0  0  0  0  0  0  0
   -0.4979   -3.3919    1.5025 N   0  0  0  0  0  0  0  0  0  0  0  0
   -1.8677   -3.6749    1.8029 C   0  0  0  0  0  0  0  0  0  0  0  0
   -2.5307   -2.8260    2.4621 O   0  0  0  0  0  0  0  0  0  0  0  0
   -2.5259   -4.9641    1.3666 C   0  0  1  0  0  0  0  0  0  0  0  0
   -1.5790   -6.1582    1.5172 C   0  0  0  0  0  0  0  0  0  0  0  0
   -3.7273   -5.2171    2.1799 N   0  0  0  0  0  0  0  0  0  0  0  0
   -4.9165   -5.9113    1.7601 C   0  0  0  0  0  0  0  0  0  0  0  0
   -5.7322   -6.2816    2.6491 O   0  0  0  0  0  0  0  0  0  0  0  0
   -5.2701   -6.1800    0.3153 C   0  0  1  0  0  0  0  0  0  0  0  0
   -5.3596   -7.6924    0.0768 C   0  0  0  0  0  0  0  0  0  0  0  0
   -6.5496   -5.5366    0.0051 N   0  0  0  0  0  0  0  0  0  0  0  0
   -6.6651   -4.1049   -0.1170 C   0  0  0  0  0  0  0  0  0  0  0  0
   -5.6467   -3.3848    0.0716 O   0  0  0  0  0  0  0  0  0  0  0  0
   -7.9509   -3.4226   -0.5417 C   0  0  1  0  0  0  0  0  0  0  0  0
   -9.1896   -4.3201   -0.4819 C   0  0  0  0  0  0  0  0  0  0  0  0
   -8.1870   -2.2432    0.2946 N   0  0  0  0  0  0  0  0  0  0  0  0
   -8.1011   -0.9187   -0.2426 C   0  0  0  0  0  0  0  0  0  0  0  0
   -7.1386   -0.6181   -1.0006 O   0  0  0  0  0  0  0  0  0  0  0  0
   -9.2084    0.0853   -0.0355 C   0  0  1  0  0  0  0  0  0  0  0  0
  -10.1913    0.0011   -1.2038 C   0  0  0  0  0  0  0  0  0  0  0  0
   -9.9236   -0.1479    1.2243 N   0  0  0  0  0  0  0  0  0  0  0  0
  -10.2615    0.8854    2.1632 C   0  0  0  0  0  0  0  0  0  0  0  0
  -10.6003    0.5567    3.3345 O   0  0  0  0  0  0  0  0  0  0  0  0
  -10.2329    2.3505    1.7825 C   0  0  1  0  0  0  0  0  0  0  0  0
  -11.2995    3.1457    2.5433 C   0  0  0  0  0  0  0  0  0  0  0  0
   -8.9054    2.9018    2.0680 N   0  0  0  0  0  0  0  0  0  0  0  0
   -8.2168    3.8912    1.2821 C   0  0  0  0  0  0  0  0  0  0  0  0
   -7.0119    4.1347    1.5706 O   0  0  0  0  0  0  0  0  0  0  0  0
   -8.8778    4.6533    0.1492 C   0  0  1  0  0  0  0  0  0  0  0  0
   -8.8233    6.1763    0.3349 C   0  0  0  0  0  0  0  0  0  0  0  0
   -8.3880    4.2005   -1.1646 N   0  0  0  0  0  0  0  0  0  0  0  0
   -7.1816    4.5722   -1.8716 C   0  0  0  0  0  0  0  0  0  0  0  0
   -7.0106    4.1163   -3.0356 O   0  0  0  0  0  0  0  0  0  0  0  0
    0.2527   -4.0665   -0.7323 C   0  0  0  0  0  0  0  0  0  0  0  0
   -0.6906   -4.5562   -1.4127 O   0  0  0  0  0  0  0  0  0  0  0  0
    1.5764   -4.6023   -0.9094 N   0  0  0  0  0  0  0  0  0  0  0  0
    2.6302   -4.5518    0.1175 C   0  0  2  0  0  0  0  0  0  0  0  0
    3.5810   -3.3745   -0.1330 C   0  0  0  0  0  0  0  0  0  0  0  0
    3.3986   -5.8525    0.1218 C   0  0  0  0  0  0  0  0  0  0  0  0
    3.3578   -6.6010    1.1358 O   0  0  0  0  0  0  0  0  0  0  0  0
    4.1256   -6.2719   -1.0395 N   0  0  0  0  0  0  0  0  0  0  0  0
    5.5426   -5.9535   -1.2187 C   0  0  2  0  0  0  0  0  0  0  0  0
    5.7815   -5.5038   -2.6635 C   0  0  0  0  0  0  0  0  0  0  0  0
    6.3912   -7.1627   -0.9097 C   0  0  0  0  0  0  0  0  0  0  0  0
    6.0140   -8.2955   -1.3229 O   0  0  0  0  0  0  0  0  0  0  0  0
    7.6179   -7.0730   -0.1614 N   0  0  0  0  0  0  0  0  0  0  0  0
    8.5195   -5.9098   -0.1749 C   0  0  2  0  0  0  0  0  0  0  0  0
    9.6402   -6.1536   -1.1861 C   0  0  0  0  0  0  0  0  0  0  0  0
    9.0863   -5.6915    1.2075 C   0  0  0  0  0  0  0  0  0  0  0  0
    9.4227   -6.6925    1.9005 O   0  0  0  0  0  0  0  0  0  0  0  0
    9.2244   -4.3798    1.7714 N   0  0  0  0  0  0  0  0  0  0  0  0
    9.8242   -3.2603    1.0366 C   0  0  2  0  0  0  0  0  0  0  0  0
   11.3494   -3.4183    1.0314 C   0  0  0  0  0  0  0  0  0  0  0  0
    9.4241   -1.9538    1.6897 C   0  0  0  0  0  0  0  0  0  0  0  0
    9.6768   -1.7710    2.9123 O   0  0  0  0  0  0  0  0  0  0  0  0
    8.6786   -0.9523    0.9849 N   0  0  0  0  0  0  0  0  0  0  0  0
    9.0729   -0.4226   -0.3274 C   0  0  2  0  0  0  0  0  0  0  0  0
   10.4570    0.2427   -0.2850 C   0  0  0  0  0  0  0  0  0  0  0  0
    8.0182    0.5127   -0.8895 C   0  0  0  0  0  0  0  0  0  0  0  0
    7.5281    0.2289   -2.0193 O   0  0  0  0  0  0  0  0  0  0  0  0
    7.5276    1.6924   -0.2185 N   0  0  0  0  0  0  0  0  0  0  0  0
    8.0223    2.2690    1.0363 C   0  0  2  0  0  0  0  0  0  0  0  0
    6.8691    2.4626    2.0279 C   0  0  0  0  0  0  0  0  0  0  0  0
    8.7861    3.5474    0.7554 C   0  0  0  0  0  0  0  0  0  0  0  0
    9.9994    3.4654    0.4283 O   0  0  0  0  0  0  0  0  0  0  0  0
    8.2114    4.8513    0.9233 N   0  0  0  0  0  0  0  0  0  0  0  0
    7.0342    5.2937    0.1755 C   0  0  2  0  0  0  0  0  0  0  0  0
    7.4660    5.9949   -1.1156 C   0  0  0  0  0  0  0  0  0  0  0  0
    6.2084    6.2053    1.0429 C   0  0  0  0  0  0  0  0  0  0  0  0
    6.6161    7.3684    1.3163 O   0  0  0  0  0  0  0  0  0  0  0  0
    5.0170    5.7187    1.6715 N   0  0  0  0  0  0  0  0  0  0  0  0
    3.6818    5.8197    1.0732 C   0  0  1  0  0  0  0  0  0  0  0  0
    3.2417    7.2601    0.9780 C   0  0  0  0  0  0  0  0  0  0  0  0
    3.8525    8.1695    0.0566 N   0  0  0  0  0  0  0  0  0  0  0  0
    2.3255    7.6754    1.7389 O   0  0  0  0  0  0  0  0  0  0  0  0
    3.6181    5.0899   -0.2788 C   0  0  0  0  0  0  0  0  0  0  0  0
    1.8976    4.9167   -0.8805 S   0  0  0  0  0  0  0  0  0  0  0  0
    1.5300    3.3843    0.0453 C   0  0  0  0  0  0  0  0  0  0  0  0
   -5.3522    8.2062   -3.9374 H   0  0  0  0  0  0  0  0  0  0  0  0
   -6.3104    9.3962   -2.9652 H   0  0  0  0  0  0  0  0  0  0  0  0
   -6.9788    8.7318   -4.5120 H   0  0  0  0  0  0  0  0  0  0  0  0
   -5.8147    7.6143   -1.0983 H   0  0  0  0  0  0  0  0  0  0  0  0
   -6.1376    5.3933   -0.2089 H   0  0  0  0  0  0  0  0  0  0  0  0
   -4.6216    4.0238   -1.9830 H   0  0  0  0  0  0  0  0  0  0  0  0
   -4.4392    5.6627   -2.6816 H   0  0  0  0  0  0  0  0  0  0  0  0
   -4.4056    3.4111    0.2789 H   0  0  0  0  0  0  0  0  0  0  0  0
   -3.3228    4.1605    1.4858 H   0  0  0  0  0  0  0  0  0  0  0  0
   -0.8275    4.4610    0.8484 H   0  0  0  0  0  0  0  0  0  0  0  0
    0.8117    1.3066   -1.5519 H   0  0  0  0  0  0  0  0  0  0  0  0
   -3.4474    1.6496   -1.0752 H   0  0  0  0  0  0  0  0  0  0  0  0
   -1.4707    0.4302   -3.2974 H   0  0  0  0  0  0  0  0  0  0  0  0
   -2.5656   -0.3419   -2.1062 H   0  0  0  0  0  0  0  0  0  0  0  0
   -1.1563   -1.0537    0.2988 H   0  0  0  0  0  0  0  0  0  0  0  0
   -1.9826   -2.3517   -0.6396 H   0  0  0  0  0  0  0  0  0  0  0  0
    0.9141   -2.3552    0.3676 H   0  0  0  0  0  0  0  0  0  0  0  0
    0.1292   -3.2028    2.3212 H   0  0  0  0  0  0  0  0  0  0  0  0
   -2.7839   -4.8351    0.2996 H   0  0  0  0  0  0  0  0  0  0  0  0
   -1.2263   -6.2500    2.5697 H   0  0  0  0  0  0  0  0  0  0  0  0
   -0.6925   -6.0528    0.8574 H   0  0  0  0  0  0  0  0  0  0  0  0
   -2.1065   -7.0945    1.2308 H   0  0  0  0  0  0  0  0  0  0  0  0
   -3.6236   -5.0807    3.2134 H   0  0  0  0  0  0  0  0  0  0  0  0
   -4.5116   -5.7984   -0.3919 H   0  0  0  0  0  0  0  0  0  0  0  0
   -6.1288   -8.1555    0.7327 H   0  0  0  0  0  0  0  0  0  0  0  0
   -5.6315   -7.8946   -0.9782 H   0  0  0  0  0  0  0  0  0  0  0  0
   -4.3781   -8.1680    0.2834 H   0  0  0  0  0  0  0  0  0  0  0  0
   -7.3864   -6.1388   -0.1459 H   0  0  0  0  0  0  0  0  0  0  0  0
   -7.8241   -3.1070   -1.6038 H   0  0  0  0  0  0  0  0  0  0  0  0
   -9.1182   -5.1328   -1.2381 H   0  0  0  0  0  0  0  0  0  0  0  0
  -10.0945   -3.7208   -0.7213 H   0  0  0  0  0  0  0  0  0  0  0  0
   -9.3152   -4.7530    0.5326 H   0  0  0  0  0  0  0  0  0  0  0  0
   -8.3934   -2.3782    1.3140 H   0  0  0  0  0  0  0  0  0  0  0  0
   -8.7455    1.0943   -0.0423 H   0  0  0  0  0  0  0  0  0  0  0  0
   -9.6720    0.2219   -2.1621 H   0  0  0  0  0  0  0  0  0  0  0  0
  -10.6352   -1.0147   -1.2664 H   0  0  0  0  0  0  0  0  0  0  0  0
  -11.0091    0.7410   -1.0672 H   0  0  0  0  0  0  0  0  0  0  0  0
  -10.3013   -1.1035    1.4142 H   0  0  0  0  0  0  0  0  0  0  0  0
  -10.4721    2.4181    0.7019 H   0  0  0  0  0  0  0  0  0  0  0  0
  -11.3819    4.1736    2.1307 H   0  0  0  0  0  0  0  0  0  0  0  0
  -11.0321    3.2300    3.6192 H   0  0  0  0  0  0  0  0  0  0  0  0
  -12.2945    2.6550    2.4599 H   0  0  0  0  0  0  0  0  0  0  0  0
   -8.4156    2.5652    2.9298 H   0  0  0  0  0  0  0  0  0  0  0  0
   -9.9618    4.4390    0.1661 H   0  0  0  0  0  0  0  0  0  0  0  0
   -7.8201    6.5447    0.6175 H   0  0  0  0  0  0  0  0  0  0  0  0
   -9.5082    6.4726    1.1568 H   0  0  0  0  0  0  0  0  0  0  0  0
   -9.1599    6.6884   -0.5906 H   0  0  0  0  0  0  0  0  0  0  0  0
   -9.0152    3.5369   -1.6729 H   0  0  0  0  0  0  0  0  0  0  0  0
    1.7147   -5.2423   -1.7233 H   0  0  0  0  0  0  0  0  0  0  0  0
    2.1669   -4.4240    1.1242 H   0  0  0  0  0  0  0  0  0  0  0  0
    3.0644   -2.4023   -0.0151 H   0  0  0  0  0  0  0  0  0  0  0  0
    4.4162   -3.3936    0.5995 H   0  0  0  0  0  0  0  0  0  0  0  0
    3.9945   -3.4148   -1.1631 H   0  0  0  0  0  0  0  0  0  0  0  0
    3.6855   -7.0084   -1.6394 H   0  0  0  0  0  0  0  0  0  0  0  0
    5.8084   -5.1203   -0.5393 H   0  0  0  0  0  0  0  0  0  0  0  0
    6.8360   -5.1826   -2.7918 H   0  0  0  0  0  0  0  0  0  0  0  0
    5.1199   -4.6450   -2.9070 H   0  0  0  0  0  0  0  0  0  0  0  0
    5.5634   -6.3316   -3.3723 H   0  0  0  0  0  0  0  0  0  0  0  0
    8.0400   -7.9864    0.1190 H   0  0  0  0  0  0  0  0  0  0  0  0
    7.9772   -4.9969   -0.4816 H   0  0  0  0  0  0  0  0  0  0  0  0
   10.2630   -7.0215   -0.8776 H   0  0  0  0  0  0  0  0  0  0  0  0
    9.2027   -6.3658   -2.1872 H   0  0  0  0  0  0  0  0  0  0  0  0
   10.2835   -5.2561   -1.2762 H   0  0  0  0  0  0  0  0  0  0  0  0
    9.2453   -4.3360    2.8152 H   0  0  0  0  0  0  0  0  0  0  0  0
    9.4642   -3.2701   -0.0103 H   0  0  0  0  0  0  0  0  0  0  0  0
   11.8273   -2.5947    0.4709 H   0  0  0  0  0  0  0  0  0  0  0  0
   11.7420   -3.4323    2.0677 H   0  0  0  0  0  0  0  0  0  0  0  0
   11.6287   -4.3720    0.5396 H   0  0  0  0  0  0  0  0  0  0  0  0
    7.8389   -0.5643    1.4671 H   0  0  0  0  0  0  0  0  0  0  0  0
    9.1603   -1.2785   -1.0368 H   0  0  0  0  0  0  0  0  0  0  0  0
   10.6512    0.7871   -1.2337 H   0  0  0  0  0  0  0  0  0  0  0  0
   11.2455   -0.5211   -0.1743 H   0  0  0  0  0  0  0  0  0  0  0  0
   10.5627    0.9432    0.5608 H   0  0  0  0  0  0  0  0  0  0  0  0
    6.7708    2.2194   -0.7153 H   0  0  0  0  0  0  0  0  0  0  0  0
    8.7223    1.5782    1.5401 H   0  0  0  0  0  0  0  0  0  0  0  0
    6.5030    1.4715    2.3693 H   0  0  0  0  0  0  0  0  0  0  0  0
    6.0099    2.9901    1.5682 H   0  0  0  0  0  0  0  0  0  0  0  0
    7.2117    3.0337    2.9172 H   0  0  0  0  0  0  0  0  0  0  0  0
    8.8438    5.5971    1.2937 H   0  0  0  0  0  0  0  0  0  0  0  0
    6.4172    4.4243   -0.1105 H   0  0  0  0  0  0  0  0  0  0  0  0
    6.5767    6.3634   -1.6691 H   0  0  0  0  0  0  0  0  0  0  0  0
    8.0120    5.2758   -1.7624 H   0  0  0  0  0  0  0  0  0  0  0  0
    8.1362    6.8497   -0.8937 H   0  0  0  0  0  0  0  0  0  0  0  0
    5.1207    5.2351    2.5902 H   0  0  0  0  0  0  0  0  0  0  0  0
    2.9816    5.3029    1.7664 H   0  0  0  0  0  0  0  0  0  0  0  0
    4.6425    7.8798   -0.5616 H   0  0  0  0  0  0  0  0  0  0  0  0
    3.5122    9.1557   -0.0030 H   0  0  0  0  0  0  0  0  0  0  0  0
    4.0845    4.0859   -0.1875 H   0  0  0  0  0  0  0  0  0  0  0  0
    4.1956    5.6438   -1.0458 H   0  0  0  0  0  0  0  0  0  0  0  0
    1.6039    3.5681    1.1392 H   0  0  0  0  0  0  0  0  0  0  0  0
    2.2777    2.6014   -0.2160 H   0  0  0  0  0  0  0  0  0  0  0  0
  1  2  1  0
  2  3  2  0
  2  4  1  0
  4  5  1  0
  5  6  1  0
  6  7  1  0
  7  8  1  0
  8  9  1  0
  9 10  2  0
 10 11  1  0
 11 12  2  0
 12 13  1  0
 13 14  2  0
 13 15  1  0
 15 16  1  0
 16 17  1  0
 17 18  1  0
 18 19  1  0
 19 20  1  0
 20 21  2  0
 20 22  1  0
 22 23  1  0
 22 24  1  0
 24 25  1  0
 25 26  2  0
 25 27  1  0
 27 28  1  0
 27 29  1  0
 29 30  1  0
 30 31  2  0
 30 32  1  0
 32 33  1  0
 32 34  1  0
 34 35  1  0
 35 36  2  0
 35 37  1  0
 37 38  1  0
 37 39  1  0
 39 40  1  0
 40 41  2  0
 40 42  1  0
 42 43  1  0
 42 44  1  0
 44 45  1  0
 45 46  2  0
 45 47  1  0
 47 48  1  0
 47 49  1  0
 49 50  1  0
 50 51  2  0
 18 52  1  0
 52 53  2  0
 52 54  1  0
 54 55  1  0
 55 56  1  0
 55 57  1  0
 57 58  2  0
 57 59  1  0
 59 60  1  0
 60 61  1  0
 60 62  1  0
 62 63  2  0
 62 64  1  0
 64 65  1  0
 65 66  1  0
 65 67  1  0
 67 68  2  0
 67 69  1  0
 69 70  1  0
 70 71  1  0
 70 72  1  0
 72 73  2  0
 72 74  1  0
 74 75  1  0
 75 76  1  0
 75 77  1  0
 77 78  2  0
 77 79  1  0
 79 80  1  0
 80 81  1  0
 80 82  1  0
 82 83  2  0
 82 84  1  0
 84 85  1  0
 85 86  1  0
 85 87  1  0
 87 88  2  0
 87 89  1  0
 89 90  1  0
 90 91  1  0
 91 92  1  0
 91 93  2  0
 90 94  1  0
 94 95  1  0
 95 96  1  0
 50  5  1  0
 14  9  1  0
 96 11  1  0
  1 97  1  0
  1 98  1  0
  1 99  1  0
  4100  1  0
  5101  1  1
  6102  1  0
  6103  1  0
  8104  1  0
  8105  1  0
 10106  1  0
 12107  1  0
 14108  1  0
 15109  1  0
 15110  1  0
 17111  1  0
 17112  1  0
 18113  1  1
 19114  1  0
 22115  1  6
 23116  1  0
 23117  1  0
 23118  1  0
 24119  1  0
 27120  1  6
 28121  1  0
 28122  1  0
 28123  1  0
 29124  1  0
 32125  1  6
 33126  1  0
 33127  1  0
 33128  1  0
 34129  1  0
 37130  1  1
 38131  1  0
 38132  1  0
 38133  1  0
 39134  1  0
 42135  1  6
 43136  1  0
 43137  1  0
 43138  1  0
 44139  1  0
 47140  1  6
 48141  1  0
 48142  1  0
 48143  1  0
 49144  1  0
 54145  1  0
 55146  1  1
 56147  1  0
 56148  1  0
 56149  1  0
 59150  1  0
 60151  1  1
 61152  1  0
 61153  1  0
 61154  1  0
 64155  1  0
 65156  1  6
 66157  1  0
 66158  1  0
 66159  1  0
 69160  1  0
 70161  1  6
 71162  1  0
 71163  1  0
 71164  1  0
 74165  1  0
 75166  1  6
 76167  1  0
 76168  1  0
 76169  1  0
 79170  1  0
 80171  1  1
 81172  1  0
 81173  1  0
 81174  1  0
 84175  1  0
 85176  1  6
 86177  1  0
 86178  1  0
 86179  1  0
 89180  1  0
 90181  1  1
 92182  1  0
 92183  1  0
 94184  1  0
 94185  1  0
 96186  1  0
 96187  1  0
M  END
