
     RDKit          3D

207209  0  0  0  0  0  0  0  0999 V2000
    7.6909    6.0414   -1.5577 C   0  0  0  0  0  0  0  0  0  0  0  0
    7.0952    4.9965   -0.6683 C   0  0  0  0  0  0  0  0  0  0  0  0
    6.5677    3.9813   -1.1877 O   0  0  0  0  0  0  0  0  0  0  0  0
    7.1003    5.1708    0.7618 N   0  0  0  0  0  0  0  0  0  0  0  0
    6.7112    4.1471    1.7471 C   0  0  1  0  0  0  0  0  0  0  0  0
    5.1891    3.8229    1.7476 C   0  0  0  0  0  0  0  0  0  0  0  0
    4.1747    4.8838    0.6378 S   0  0  0  0  0  0  0  0  0  0  0  0
    3.5523    3.5528   -0.4573 C   0  0  0  0  0  0  0  0  0  0  0  0
    2.1736    3.1561   -0.0223 C   0  0  0  0  0  0  0  0  0  0  0  0
    1.1080    4.0397   -0.2449 C   0  0  0  0  0  0  0  0  0  0  0  0
   -0.1962    3.6962    0.1319 C   0  0  0  0  0  0  0  0  0  0  0  0
   -0.4267    2.4688    0.7720 C   0  0  0  0  0  0  0  0  0  0  0  0
    0.6323    1.5809    1.0170 C   0  0  0  0  0  0  0  0  0  0  0  0
    1.9288    1.9180    0.5951 C   0  0  0  0  0  0  0  0  0  0  0  0
    0.3495    0.2750    1.7006 C   0  0  0  0  0  0  0  0  0  0  0  0
   -0.5887   -0.8324    0.5944 S   0  0  0  0  0  0  0  0  0  0  0  0
    0.8431   -1.4978   -0.3350 C   0  0  0  0  0  0  0  0  0  0  0  0
    0.7127   -3.0119   -0.5704 C   0  0  1  0  0  0  0  0  0  0  0  0
    1.9149   -3.4827   -1.2782 N   0  0  0  0  0  0  0  0  0  0  0  0
    2.9803   -4.2401   -0.6732 C   0  0  0  0  0  0  0  0  0  0  0  0
    2.7167   -5.3128   -0.0642 O   0  0  0  0  0  0  0  0  0  0  0  0
    4.4258   -3.8050   -0.8077 C   0  0  1  0  0  0  0  0  0  0  0  0
    4.5714   -2.2795   -0.8238 C   0  0  0  0  0  0  0  0  0  0  0  0
    5.2006   -4.3454    0.3154 N   0  0  0  0  0  0  0  0  0  0  0  0
    6.1802   -5.3810    0.1655 C   0  0  0  0  0  0  0  0  0  0  0  0
    5.9749   -6.4953    0.7197 O   0  0  0  0  0  0  0  0  0  0  0  0
    7.4812   -5.1651   -0.5797 C   0  0  1  0  0  0  0  0  0  0  0  0
    7.3053   -5.4224   -2.0815 C   0  0  0  0  0  0  0  0  0  0  0  0
    8.0145   -3.8147   -0.3454 N   0  0  0  0  0  0  0  0  0  0  0  0
    9.2796   -3.3380   -0.8329 C   0  0  0  0  0  0  0  0  0  0  0  0
    9.4319   -2.0971   -1.0031 O   0  0  0  0  0  0  0  0  0  0  0  0
   10.4700   -4.2554   -1.0425 C   0  0  1  0  0  0  0  0  0  0  0  0
   10.9962   -4.1000   -2.4767 C   0  0  0  0  0  0  0  0  0  0  0  0
   11.5437   -3.9340   -0.0963 N   0  0  0  0  0  0  0  0  0  0  0  0
   11.2827   -3.4875    1.2399 C   0  0  0  0  0  0  0  0  0  0  0  0
   10.5598   -4.1891    2.0024 O   0  0  0  0  0  0  0  0  0  0  0  0
   11.7299   -2.1178    1.6727 C   0  0  1  0  0  0  0  0  0  0  0  0
   12.1347   -2.0866    3.1480 C   0  0  0  0  0  0  0  0  0  0  0  0
   12.8610   -1.6670    0.8551 N   0  0  0  0  0  0  0  0  0  0  0  0
   12.9216   -0.4228    0.1406 C   0  0  0  0  0  0  0  0  0  0  0  0
   13.6921   -0.3387   -0.8529 O   0  0  0  0  0  0  0  0  0  0  0  0
   12.2219    0.8300    0.6281 C   0  0  1  0  0  0  0  0  0  0  0  0
   13.2341    1.7239    1.3507 C   0  0  0  0  0  0  0  0  0  0  0  0
   11.6175    1.5581   -0.4999 N   0  0  0  0  0  0  0  0  0  0  0  0
   10.7738    2.7163   -0.3650 C   0  0  0  0  0  0  0  0  0  0  0  0
   10.6292    3.4777   -1.3636 O   0  0  0  0  0  0  0  0  0  0  0  0
    9.9697    3.0019    0.8877 C   0  0  1  0  0  0  0  0  0  0  0  0
   10.1978    4.4543    1.3322 C   0  0  0  0  0  0  0  0  0  0  0  0
    8.5516    2.7554    0.6194 N   0  0  0  0  0  0  0  0  0  0  0  0
    7.5615    2.8976    1.6400 C   0  0  0  0  0  0  0  0  0  0  0  0
    7.4063    1.9670    2.4762 O   0  0  0  0  0  0  0  0  0  0  0  0
    0.4848   -3.7519    0.7345 C   0  0  0  0  0  0  0  0  0  0  0  0
    1.2403   -3.4821    1.7094 O   0  0  0  0  0  0  0  0  0  0  0  0
   -0.5615   -4.7246    0.9379 N   0  0  0  0  0  0  0  0  0  0  0  0
   -1.4080   -5.3837   -0.0732 C   0  0  2  0  0  0  0  0  0  0  0  0
   -0.5873   -5.9371   -1.2484 C   0  0  0  0  0  0  0  0  0  0  0  0
   -2.5586   -4.4924   -0.5094 C   0  0  0  0  0  0  0  0  0  0  0  0
   -2.4779   -3.2545   -0.3020 O   0  0  0  0  0  0  0  0  0  0  0  0
   -3.7667   -5.0022   -1.1190 N   0  0  0  0  0  0  0  0  0  0  0  0
   -4.0279   -6.3939   -1.5155 C   0  0  2  0  0  0  0  0  0  0  0  0
   -5.3535   -6.5133   -2.2789 C   0  0  0  0  0  0  0  0  0  0  0  0
   -4.0162   -7.3438   -0.3386 C   0  0  0  0  0  0  0  0  0  0  0  0
   -3.3624   -8.4174   -0.4607 O   0  0  0  0  0  0  0  0  0  0  0  0
   -4.6476   -7.0698    0.9258 N   0  0  0  0  0  0  0  0  0  0  0  0
   -5.6535   -6.0362    1.2012 C   0  0  2  0  0  0  0  0  0  0  0  0
   -5.2286   -5.2598    2.4537 C   0  0  0  0  0  0  0  0  0  0  0  0
   -7.0208   -6.6690    1.3919 C   0  0  0  0  0  0  0  0  0  0  0  0
   -7.1329   -7.9262    1.3403 O   0  0  0  0  0  0  0  0  0  0  0  0
   -8.2049   -5.8933    1.6506 N   0  0  0  0  0  0  0  0  0  0  0  0
   -8.3957   -4.4936    1.2563 C   0  0  2  0  0  0  0  0  0  0  0  0
   -8.8167   -3.6679    2.4770 C   0  0  0  0  0  0  0  0  0  0  0  0
   -9.4454   -4.3691    0.1859 C   0  0  0  0  0  0  0  0  0  0  0  0
  -10.2095   -5.3377   -0.0905 O   0  0  0  0  0  0  0  0  0  0  0  0
   -9.5825   -3.1269   -0.5178 N   0  0  0  0  0  0  0  0  0  0  0  0
  -10.8594   -2.4032   -0.5415 C   0  0  2  0  0  0  0  0  0  0  0  0
  -11.7866   -2.9664   -1.6270 C   0  0  0  0  0  0  0  0  0  0  0  0
  -10.5935   -0.9391   -0.7786 C   0  0  0  0  0  0  0  0  0  0  0  0
  -10.0757   -0.5686   -1.8656 O   0  0  0  0  0  0  0  0  0  0  0  0
  -10.8251    0.0172    0.2690 N   0  0  0  0  0  0  0  0  0  0  0  0
  -10.0721    1.2731    0.3383 C   0  0  2  0  0  0  0  0  0  0  0  0
   -8.6499    0.9988    0.8307 C   0  0  0  0  0  0  0  0  0  0  0  0
  -10.7482    2.2638    1.2625 C   0  0  0  0  0  0  0  0  0  0  0  0
  -11.0242    1.8903    2.4364 O   0  0  0  0  0  0  0  0  0  0  0  0
  -11.0424    3.6249    0.8922 N   0  0  0  0  0  0  0  0  0  0  0  0
  -11.0413    4.2070   -0.4575 C   0  0  2  0  0  0  0  0  0  0  0  0
  -12.1430    3.5648   -1.3157 C   0  0  0  0  0  0  0  0  0  0  0  0
   -9.6719    4.1859   -1.1137 C   0  0  0  0  0  0  0  0  0  0  0  0
   -9.5361    3.6092   -2.2268 O   0  0  0  0  0  0  0  0  0  0  0  0
   -8.5358    4.8865   -0.5748 N   0  0  0  0  0  0  0  0  0  0  0  0
   -8.2971    5.1682    0.8492 C   0  0  2  0  0  0  0  0  0  0  0  0
   -8.9136    6.5215    1.2216 C   0  0  0  0  0  0  0  0  0  0  0  0
   -6.8111    5.1128    1.1133 C   0  0  0  0  0  0  0  0  0  0  0  0
   -6.2053    4.0218    0.9249 O   0  0  0  0  0  0  0  0  0  0  0  0
   -6.0569    6.2778    1.4672 N   0  0  0  0  0  0  0  0  0  0  0  0
   -4.8709    6.6495    0.7012 C   0  0  2  0  0  0  0  0  0  0  0  0
   -4.0255    7.6682    1.4730 C   0  0  0  0  0  0  0  0  0  0  0  0
   -5.3190    7.2224   -0.6217 C   0  0  0  0  0  0  0  0  0  0  0  0
   -5.9486    8.3152   -0.6236 O   0  0  0  0  0  0  0  0  0  0  0  0
   -5.1507    6.5297   -1.8729 N   0  0  0  0  0  0  0  0  0  0  0  0
   -4.2143    5.4217   -2.0973 C   0  0  1  0  0  0  0  0  0  0  0  0
   -4.5306    4.7201   -3.3960 C   0  0  0  0  0  0  0  0  0  0  0  0
   -4.4700    5.4150   -4.6443 N   0  0  0  0  0  0  0  0  0  0  0  0
   -4.8742    3.5092   -3.3822 O   0  0  0  0  0  0  0  0  0  0  0  0
   -2.7687    5.9455   -2.0952 C   0  0  0  0  0  0  0  0  0  0  0  0
   -1.5674    4.5704   -2.0268 S   0  0  0  0  0  0  0  0  0  0  0  0
   -1.3295    4.6129   -0.2178 C   0  0  0  0  0  0  0  0  0  0  0  0
    6.8983    6.4773   -2.2006 H   0  0  0  0  0  0  0  0  0  0  0  0
    8.1649    6.8494   -0.9641 H   0  0  0  0  0  0  0  0  0  0  0  0
    8.4680    5.5773   -2.2019 H   0  0  0  0  0  0  0  0  0  0  0  0
    7.4639    6.0790    1.1360 H   0  0  0  0  0  0  0  0  0  0  0  0
    6.9430    4.5674    2.7536 H   0  0  0  0  0  0  0  0  0  0  0  0
    4.7990    3.9906    2.7744 H   0  0  0  0  0  0  0  0  0  0  0  0
    5.0148    2.7419    1.5533 H   0  0  0  0  0  0  0  0  0  0  0  0
    3.5086    3.9419   -1.4944 H   0  0  0  0  0  0  0  0  0  0  0  0
    4.2368    2.6778   -0.4837 H   0  0  0  0  0  0  0  0  0  0  0  0
    1.2889    4.9914   -0.7386 H   0  0  0  0  0  0  0  0  0  0  0  0
   -1.4327    2.2064    1.0824 H   0  0  0  0  0  0  0  0  0  0  0  0
    2.7448    1.2315    0.7584 H   0  0  0  0  0  0  0  0  0  0  0  0
   -0.2781    0.4708    2.5933 H   0  0  0  0  0  0  0  0  0  0  0  0
    1.2770   -0.2125    2.0638 H   0  0  0  0  0  0  0  0  0  0  0  0
    1.7997   -1.3045    0.1882 H   0  0  0  0  0  0  0  0  0  0  0  0
    0.8917   -0.9717   -1.3108 H   0  0  0  0  0  0  0  0  0  0  0  0
   -0.1499   -3.1577   -1.2422 H   0  0  0  0  0  0  0  0  0  0  0  0
    2.0959   -3.0737   -2.2243 H   0  0  0  0  0  0  0  0  0  0  0  0
    4.8034   -4.2092   -1.7699 H   0  0  0  0  0  0  0  0  0  0  0  0
    5.6421   -2.0040   -0.9388 H   0  0  0  0  0  0  0  0  0  0  0  0
    4.0222   -1.8322   -1.6785 H   0  0  0  0  0  0  0  0  0  0  0  0
    4.1910   -1.8465    0.1271 H   0  0  0  0  0  0  0  0  0  0  0  0
    4.8554   -4.1528    1.2837 H   0  0  0  0  0  0  0  0  0  0  0  0
    8.1988   -5.9120   -0.1819 H   0  0  0  0  0  0  0  0  0  0  0  0
    6.8971   -4.5263   -2.5970 H   0  0  0  0  0  0  0  0  0  0  0  0
    8.2892   -5.6584   -2.5367 H   0  0  0  0  0  0  0  0  0  0  0  0
    6.6376   -6.2922   -2.2602 H   0  0  0  0  0  0  0  0  0  0  0  0
    7.4173   -3.1100    0.1409 H   0  0  0  0  0  0  0  0  0  0  0  0
   10.1905   -5.3214   -0.9067 H   0  0  0  0  0  0  0  0  0  0  0  0
   10.1896   -4.3030   -3.2114 H   0  0  0  0  0  0  0  0  0  0  0  0
   11.3821   -3.0681   -2.6381 H   0  0  0  0  0  0  0  0  0  0  0  0
   11.8265   -4.8181   -2.6559 H   0  0  0  0  0  0  0  0  0  0  0  0
   12.5146   -4.2565   -0.3078 H   0  0  0  0  0  0  0  0  0  0  0  0
   10.8477   -1.4624    1.5343 H   0  0  0  0  0  0  0  0  0  0  0  0
   11.2732   -2.3538    3.8016 H   0  0  0  0  0  0  0  0  0  0  0  0
   12.4681   -1.0629    3.4208 H   0  0  0  0  0  0  0  0  0  0  0  0
   12.9685   -2.7993    3.3332 H   0  0  0  0  0  0  0  0  0  0  0  0
   13.6633   -2.3291    0.7190 H   0  0  0  0  0  0  0  0  0  0  0  0
   11.4306    0.5565    1.3436 H   0  0  0  0  0  0  0  0  0  0  0  0
   12.7209    2.5847    1.8254 H   0  0  0  0  0  0  0  0  0  0  0  0
   13.9965    2.1092    0.6351 H   0  0  0  0  0  0  0  0  0  0  0  0
   13.7443    1.1462    2.1519 H   0  0  0  0  0  0  0  0  0  0  0  0
   11.8969    1.3049   -1.4749 H   0  0  0  0  0  0  0  0  0  0  0  0
   10.2735    2.3492    1.7275 H   0  0  0  0  0  0  0  0  0  0  0  0
   11.2764    4.6227    1.5348 H   0  0  0  0  0  0  0  0  0  0  0  0
    9.6348    4.6654    2.2677 H   0  0  0  0  0  0  0  0  0  0  0  0
    9.8739    5.1613    0.5401 H   0  0  0  0  0  0  0  0  0  0  0  0
    8.2735    2.2362   -0.2431 H   0  0  0  0  0  0  0  0  0  0  0  0
   -0.6661   -5.0798    1.9174 H   0  0  0  0  0  0  0  0  0  0  0  0
   -1.8489   -6.2612    0.4405 H   0  0  0  0  0  0  0  0  0  0  0  0
    0.4178   -6.2604   -0.9042 H   0  0  0  0  0  0  0  0  0  0  0  0
   -0.4707   -5.1971   -2.0632 H   0  0  0  0  0  0  0  0  0  0  0  0
   -1.0747   -6.8379   -1.6727 H   0  0  0  0  0  0  0  0  0  0  0  0
   -4.4830   -4.2817   -1.3658 H   0  0  0  0  0  0  0  0  0  0  0  0
   -3.2378   -6.6987   -2.2342 H   0  0  0  0  0  0  0  0  0  0  0  0
   -5.4757   -7.5445   -2.6685 H   0  0  0  0  0  0  0  0  0  0  0  0
   -5.3592   -5.8130   -3.1396 H   0  0  0  0  0  0  0  0  0  0  0  0
   -6.2184   -6.2793   -1.6296 H   0  0  0  0  0  0  0  0  0  0  0  0
   -4.4548   -7.7519    1.6977 H   0  0  0  0  0  0  0  0  0  0  0  0
   -5.7133   -5.3279    0.3601 H   0  0  0  0  0  0  0  0  0  0  0  0
   -4.1771   -4.9148    2.3445 H   0  0  0  0  0  0  0  0  0  0  0  0
   -5.2971   -5.9037    3.3576 H   0  0  0  0  0  0  0  0  0  0  0  0
   -5.8591   -4.3624    2.6005 H   0  0  0  0  0  0  0  0  0  0  0  0
   -9.0265   -6.4012    2.0502 H   0  0  0  0  0  0  0  0  0  0  0  0
   -7.4562   -4.0618    0.8582 H   0  0  0  0  0  0  0  0  0  0  0  0
   -9.8051   -4.0108    2.8517 H   0  0  0  0  0  0  0  0  0  0  0  0
   -8.0720   -3.7752    3.2905 H   0  0  0  0  0  0  0  0  0  0  0  0
   -8.8859   -2.5940    2.2036 H   0  0  0  0  0  0  0  0  0  0  0  0
   -8.6991   -2.6036   -0.7058 H   0  0  0  0  0  0  0  0  0  0  0  0
  -11.3590   -2.5273    0.4444 H   0  0  0  0  0  0  0  0  0  0  0  0
  -12.7233   -2.3704   -1.6769 H   0  0  0  0  0  0  0  0  0  0  0  0
  -12.0633   -4.0163   -1.3988 H   0  0  0  0  0  0  0  0  0  0  0  0
  -11.2909   -2.9368   -2.6235 H   0  0  0  0  0  0  0  0  0  0  0  0
  -11.4795   -0.2465    1.0449 H   0  0  0  0  0  0  0  0  0  0  0  0
   -9.9886    1.6837   -0.6787 H   0  0  0  0  0  0  0  0  0  0  0  0
   -8.1281    0.3029    0.1377 H   0  0  0  0  0  0  0  0  0  0  0  0
   -8.0685    1.9455    0.8722 H   0  0  0  0  0  0  0  0  0  0  0  0
   -8.6640    0.5435    1.8426 H   0  0  0  0  0  0  0  0  0  0  0  0
  -11.3561    4.2559    1.6632 H   0  0  0  0  0  0  0  0  0  0  0  0
  -11.3221    5.2758   -0.3713 H   0  0  0  0  0  0  0  0  0  0  0  0
  -11.9762    2.4790   -1.4454 H   0  0  0  0  0  0  0  0  0  0  0  0
  -13.1295    3.7080   -0.8268 H   0  0  0  0  0  0  0  0  0  0  0  0
  -12.1786    4.0451   -2.3148 H   0  0  0  0  0  0  0  0  0  0  0  0
   -7.7723    5.1185   -1.2492 H   0  0  0  0  0  0  0  0  0  0  0  0
   -8.7520    4.3794    1.4763 H   0  0  0  0  0  0  0  0  0  0  0  0
  -10.0093    6.5173    1.0463 H   0  0  0  0  0  0  0  0  0  0  0  0
   -8.7537    6.7317    2.3003 H   0  0  0  0  0  0  0  0  0  0  0  0
   -8.4602    7.3352    0.6173 H   0  0  0  0  0  0  0  0  0  0  0  0
   -6.4180    6.9158    2.2133 H   0  0  0  0  0  0  0  0  0  0  0  0
   -4.2391    5.7527    0.5721 H   0  0  0  0  0  0  0  0  0  0  0  0
   -3.6885    7.2261    2.4373 H   0  0  0  0  0  0  0  0  0  0  0  0
   -4.6084    8.5872    1.6925 H   0  0  0  0  0  0  0  0  0  0  0  0
   -3.1269    7.9489    0.8827 H   0  0  0  0  0  0  0  0  0  0  0  0
   -5.6976    6.8997   -2.6834 H   0  0  0  0  0  0  0  0  0  0  0  0
   -4.3417    4.6714   -1.2893 H   0  0  0  0  0  0  0  0  0  0  0  0
   -4.1742    6.4144   -4.6933 H   0  0  0  0  0  0  0  0  0  0  0  0
   -4.7369    4.9289   -5.5266 H   0  0  0  0  0  0  0  0  0  0  0  0
   -2.5652    6.5264   -3.0152 H   0  0  0  0  0  0  0  0  0  0  0  0
   -2.6095    6.6453   -1.2530 H   0  0  0  0  0  0  0  0  0  0  0  0
   -1.0760    5.6435    0.1194 H   0  0  0  0  0  0  0  0  0  0  0  0
   -2.2726    4.3031    0.2861 H   0  0  0  0  0  0  0  0  0  0  0  0
  1  2  1  0
  2  3  2  0
  2  4  1  0
  4  5  1  0
  5  6  1  0
  6  7  1  0
  7  8  1  0
  8  9  1  0
  9 10  2  0
 10 11  1  0
 11 12  2  0
 12 13  1  0
 13 14  2  0
 13 15  1  0
 15 16  1  0
 16 17  1  0
 17 18  1  0
 18 19  1  0
 19 20  1  0
 20 21  2  0
 20 22  1  0
 22 23  1  0
 22 24  1  0
 24 25  1  0
 25 26  2  0
 25 27  1  0
 27 28  1  0
 27 29  1  0
 29 30  1  0
 30 31  2  0
 30 32  1  0
 32 33  1  0
 32 34  1  0
 34 35  1  0
 35 36  2  0
 35 37  1  0
 37 38  1  0
 37 39  1  0
 39 40  1  0
 40 41  2  0
 40 42  1  0
 42 43  1  0
 42 44  1  0
 44 45  1  0
 45 46  2  0
 45 47  1  0
 47 48  1  0
 47 49  1  0
 49 50  1  0
 50 51  2  0
 18 52  1  0
 52 53  2  0
 52 54  1  0
 54 55  1  0
 55 56  1  0
 55 57  1  0
 57 58  2  0
 57 59  1  0
 59 60  1  0
 60 61  1  0
 60 62  1  0
 62 63  2  0
 62 64  1  0
 64 65  1  0
 65 66  1  0
 65 67  1  0
 67 68  2  0
 67 69  1  0
 69 70  1  0
 70 71  1  0
 70 72  1  0
 72 73  2  0
 72 74  1  0
 74 75  1  0
 75 76  1  0
 75 77  1  0
 77 78  2  0
 77 79  1  0
 79 80  1  0
 80 81  1  0
 80 82  1  0
 82 83  2  0
 82 84  1  0
 84 85  1  0
 85 86  1  0
 85 87  1  0
 87 88  2  0
 87 89  1  0
 89 90  1  0
 90 91  1  0
 90 92  1  0
 92 93  2  0
 92 94  1  0
 94 95  1  0
 95 96  1  0
 95 97  1  0
 97 98  2  0
 97 99  1  0
 99100  1  0
100101  1  0
101102  1  0
101103  2  0
100104  1  0
104105  1  0
105106  1  0
 50  5  1  0
 14  9  1  0
106 11  1  0
  1107  1  0
  1108  1  0
  1109  1  0
  4110  1  0
  5111  1  1
  6112  1  0
  6113  1  0
  8114  1  0
  8115  1  0
 10116  1  0
 12117  1  0
 14118  1  0
 15119  1  0
 15120  1  0
 17121  1  0
 17122  1  0
 18123  1  6
 19124  1  0
 22125  1  6
 23126  1  0
 23127  1  0
 23128  1  0
 24129  1  0
 27130  1  1
 28131  1  0
 28132  1  0
 28133  1  0
 29134  1  0
 32135  1  1
 33136  1  0
 33137  1  0
 33138  1  0
 34139  1  0
 37140  1  1
 38141  1  0
 38142  1  0
 38143  1  0
 39144  1  0
 42145  1  1
 43146  1  0
 43147  1  0
 43148  1  0
 44149  1  0
 47150  1  1
 48151  1  0
 48152  1  0
 48153  1  0
 49154  1  0
 54155  1  0
 55156  1  1
 56157  1  0
 56158  1  0
 56159  1  0
 59160  1  0
 60161  1  6
 61162  1  0
 61163  1  0
 61164  1  0
 64165  1  0
 65166  1  6
 66167  1  0
 66168  1  0
 66169  1  0
 69170  1  0
 70171  1  6
 71172  1  0
 71173  1  0
 71174  1  0
 74175  1  0
 75176  1  1
 76177  1  0
 76178  1  0
 76179  1  0
 79180  1  0
 80181  1  6
 81182  1  0
 81183  1  0
 81184  1  0
 84185  1  0
 85186  1  1
 86187  1  0
 86188  1  0
 86189  1  0
 89190  1  0
 90191  1  1
 91192  1  0
 91193  1  0
 91194  1  0
 94195  1  0
 95196  1  6
 96197  1  0
 96198  1  0
 96199  1  0
 99200  1  0
100201  1  1
102202  1  0
102203  1  0
104204  1  0
104205  1  0
106206  1  0
106207  1  0
M  END
