
     RDKit          3D

 97 99  0  0  0  0  0  0  0  0999 V2000
    8.0352    0.6400    2.8290 C   0  0  0  0  0  0  0  0  0  0  0  0
    6.9073    0.8997    1.8799 C   0  0  0  0  0  0  0  0  0  0  0  0
    5.7715    1.2003    2.3483 O   0  0  0  0  0  0  0  0  0  0  0  0
    7.1028    0.7772    0.4621 N   0  0  0  0  0  0  0  0  0  0  0  0
    6.0030    0.9163   -0.4997 C   0  0  1  0  0  0  0  0  0  0  0  0
    5.9178    2.3826   -0.9664 C   0  0  0  0  0  0  0  0  0  0  0  0
    4.3994    2.6616   -1.9607 S   0  0  0  0  0  0  0  0  0  0  0  0
    3.5646    3.8825   -0.8739 C   0  0  0  0  0  0  0  0  0  0  0  0
    2.1291    3.4785   -0.6740 C   0  0  0  0  0  0  0  0  0  0  0  0
    1.0908    4.2103   -1.2731 C   0  0  0  0  0  0  0  0  0  0  0  0
   -0.2467    3.8316   -1.0818 C   0  0  0  0  0  0  0  0  0  0  0  0
   -0.5271    2.6605   -0.3412 C   0  0  0  0  0  0  0  0  0  0  0  0
    0.4994    1.9266    0.2678 C   0  0  0  0  0  0  0  0  0  0  0  0
    1.8240    2.3580    0.1169 C   0  0  0  0  0  0  0  0  0  0  0  0
    0.1463    0.7596    1.1605 C   0  0  0  0  0  0  0  0  0  0  0  0
    1.3805   -0.5977    1.1368 S   0  0  0  0  0  0  0  0  0  0  0  0
    1.1140   -1.0971   -0.6117 C   0  0  0  0  0  0  0  0  0  0  0  0
    1.4548   -2.5984   -0.8134 C   0  0  2  0  0  0  0  0  0  0  0  0
    2.5039   -2.7257   -1.8342 N   0  0  0  0  0  0  0  0  0  0  0  0
    3.8593   -3.0074   -1.4759 C   0  0  0  0  0  0  0  0  0  0  0  0
    4.3722   -4.1165   -1.7985 O   0  0  0  0  0  0  0  0  0  0  0  0
    4.7009   -1.9316   -0.8357 C   0  0  1  0  0  0  0  0  0  0  0  0
    5.6331   -2.5244    0.2234 C   0  0  0  0  0  0  0  0  0  0  0  0
    5.4717   -1.2344   -1.8680 N   0  0  0  0  0  0  0  0  0  0  0  0
    6.2312   -0.0283   -1.6673 C   0  0  0  0  0  0  0  0  0  0  0  0
    7.1304    0.2500   -2.5023 O   0  0  0  0  0  0  0  0  0  0  0  0
    0.2247   -3.3900   -1.2261 C   0  0  0  0  0  0  0  0  0  0  0  0
    0.2018   -3.9584   -2.3493 O   0  0  0  0  0  0  0  0  0  0  0  0
   -0.9387   -3.4933   -0.3873 N   0  0  0  0  0  0  0  0  0  0  0  0
   -0.9041   -3.4811    1.0742 C   0  0  2  0  0  0  0  0  0  0  0  0
   -0.7211   -4.8990    1.6155 C   0  0  0  0  0  0  0  0  0  0  0  0
   -2.1591   -2.8410    1.5956 C   0  0  0  0  0  0  0  0  0  0  0  0
   -2.0859   -1.7240    2.1836 O   0  0  0  0  0  0  0  0  0  0  0  0
   -3.4327   -3.4767    1.3997 N   0  0  0  0  0  0  0  0  0  0  0  0
   -4.7070   -2.7503    1.4192 C   0  0  2  0  0  0  0  0  0  0  0  0
   -5.6169   -3.3479    2.4896 C   0  0  0  0  0  0  0  0  0  0  0  0
   -5.3695   -2.8647    0.0632 C   0  0  0  0  0  0  0  0  0  0  0  0
   -5.5829   -4.0216   -0.3956 O   0  0  0  0  0  0  0  0  0  0  0  0
   -5.7555   -1.7322   -0.7384 N   0  0  0  0  0  0  0  0  0  0  0  0
   -5.5821   -0.3180   -0.3710 C   0  0  2  0  0  0  0  0  0  0  0  0
   -6.6788    0.0750    0.6158 C   0  0  0  0  0  0  0  0  0  0  0  0
   -5.6402    0.5802   -1.5966 C   0  0  0  0  0  0  0  0  0  0  0  0
   -5.6432    0.0693   -2.7554 O   0  0  0  0  0  0  0  0  0  0  0  0
   -5.7462    2.0080   -1.4791 N   0  0  0  0  0  0  0  0  0  0  0  0
   -4.8569    2.8144   -0.6413 C   0  0  2  0  0  0  0  0  0  0  0  0
   -5.6906    3.7566    0.1904 C   0  0  0  0  0  0  0  0  0  0  0  0
   -5.6422    3.6910    1.6223 N   0  0  0  0  0  0  0  0  0  0  0  0
   -6.4370    4.6099   -0.3725 O   0  0  0  0  0  0  0  0  0  0  0  0
   -3.8601    3.5647   -1.5477 C   0  0  0  0  0  0  0  0  0  0  0  0
   -2.8230    4.7515   -0.6147 S   0  0  0  0  0  0  0  0  0  0  0  0
   -1.3513    4.6528   -1.7130 C   0  0  0  0  0  0  0  0  0  0  0  0
    8.9588    0.3855    2.2784 H   0  0  0  0  0  0  0  0  0  0  0  0
    8.2332    1.5428    3.4404 H   0  0  0  0  0  0  0  0  0  0  0  0
    7.7749   -0.2046    3.4984 H   0  0  0  0  0  0  0  0  0  0  0  0
    8.0804    0.7379    0.0950 H   0  0  0  0  0  0  0  0  0  0  0  0
    5.0430    0.6727   -0.0002 H   0  0  0  0  0  0  0  0  0  0  0  0
    5.9616    3.0522   -0.0824 H   0  0  0  0  0  0  0  0  0  0  0  0
    6.7989    2.6309   -1.6024 H   0  0  0  0  0  0  0  0  0  0  0  0
    3.6334    4.8678   -1.3831 H   0  0  0  0  0  0  0  0  0  0  0  0
    4.0461    3.9949    0.1197 H   0  0  0  0  0  0  0  0  0  0  0  0
    1.3316    5.0889   -1.8730 H   0  0  0  0  0  0  0  0  0  0  0  0
   -1.5466    2.3316   -0.2204 H   0  0  0  0  0  0  0  0  0  0  0  0
    2.6340    1.8228    0.5947 H   0  0  0  0  0  0  0  0  0  0  0  0
    0.0529    1.1240    2.2069 H   0  0  0  0  0  0  0  0  0  0  0  0
   -0.8467    0.3374    0.8721 H   0  0  0  0  0  0  0  0  0  0  0  0
    1.7831   -0.4514   -1.2301 H   0  0  0  0  0  0  0  0  0  0  0  0
    0.0668   -0.8784   -0.9507 H   0  0  0  0  0  0  0  0  0  0  0  0
    1.8342   -3.0602    0.1252 H   0  0  0  0  0  0  0  0  0  0  0  0
    2.3175   -2.3787   -2.8012 H   0  0  0  0  0  0  0  0  0  0  0  0
    4.0098   -1.2255   -0.3353 H   0  0  0  0  0  0  0  0  0  0  0  0
    6.4110   -3.1597   -0.2561 H   0  0  0  0  0  0  0  0  0  0  0  0
    6.1466   -1.7241    0.7873 H   0  0  0  0  0  0  0  0  0  0  0  0
    5.0627   -3.1408    0.9489 H   0  0  0  0  0  0  0  0  0  0  0  0
    5.5959   -1.7049   -2.7936 H   0  0  0  0  0  0  0  0  0  0  0  0
   -1.8142   -3.8289   -0.8460 H   0  0  0  0  0  0  0  0  0  0  0  0
   -0.0513   -2.8834    1.4314 H   0  0  0  0  0  0  0  0  0  0  0  0
    0.3203   -5.2335    1.4458 H   0  0  0  0  0  0  0  0  0  0  0  0
   -1.3920   -5.6192    1.0911 H   0  0  0  0  0  0  0  0  0  0  0  0
   -0.9204   -4.9387    2.7077 H   0  0  0  0  0  0  0  0  0  0  0  0
   -3.4569   -4.4879    1.1216 H   0  0  0  0  0  0  0  0  0  0  0  0
   -4.5297   -1.6910    1.6866 H   0  0  0  0  0  0  0  0  0  0  0  0
   -5.1450   -3.2316    3.4899 H   0  0  0  0  0  0  0  0  0  0  0  0
   -6.5915   -2.8092    2.4988 H   0  0  0  0  0  0  0  0  0  0  0  0
   -5.7864   -4.4317    2.3000 H   0  0  0  0  0  0  0  0  0  0  0  0
   -6.1999   -1.9700   -1.6607 H   0  0  0  0  0  0  0  0  0  0  0  0
   -4.5810   -0.1776    0.0970 H   0  0  0  0  0  0  0  0  0  0  0  0
   -6.6854   -0.6132    1.4804 H   0  0  0  0  0  0  0  0  0  0  0  0
   -7.6746    0.0396    0.1168 H   0  0  0  0  0  0  0  0  0  0  0  0
   -6.5019    1.0964    1.0109 H   0  0  0  0  0  0  0  0  0  0  0  0
   -6.2957    2.5054   -2.2194 H   0  0  0  0  0  0  0  0  0  0  0  0
   -4.2697    2.1519    0.0417 H   0  0  0  0  0  0  0  0  0  0  0  0
   -5.0513    2.9772    2.1028 H   0  0  0  0  0  0  0  0  0  0  0  0
   -6.2058    4.3494    2.2042 H   0  0  0  0  0  0  0  0  0  0  0  0
   -4.4042    4.1411   -2.3297 H   0  0  0  0  0  0  0  0  0  0  0  0
   -3.2238    2.8041   -2.0483 H   0  0  0  0  0  0  0  0  0  0  0  0
   -0.9916    5.6938   -1.8727 H   0  0  0  0  0  0  0  0  0  0  0  0
   -1.6019    4.2478   -2.7162 H   0  0  0  0  0  0  0  0  0  0  0  0
  1  2  1  0
  2  3  2  0
  2  4  1  0
  4  5  1  0
  5  6  1  0
  6  7  1  0
  7  8  1  0
  8  9  1  0
  9 10  1  0
 10 11  2  0
 11 12  1  0
 12 13  2  0
 13 14  1  0
 13 15  1  0
 15 16  1  0
 16 17  1  0
 17 18  1  0
 18 19  1  0
 19 20  1  0
 20 21  2  0
 20 22  1  0
 22 23  1  0
 22 24  1  0
 24 25  1  0
 25 26  2  0
 18 27  1  0
 27 28  2  0
 27 29  1  0
 29 30  1  0
 30 31  1  0
 30 32  1  0
 32 33  2  0
 32 34  1  0
 34 35  1  0
 35 36  1  0
 35 37  1  0
 37 38  2  0
 37 39  1  0
 39 40  1  0
 40 41  1  0
 40 42  1  0
 42 43  2  0
 42 44  1  0
 44 45  1  0
 45 46  1  0
 46 47  1  0
 46 48  2  0
 45 49  1  0
 49 50  1  0
 50 51  1  0
 25  5  1  0
 14  9  2  0
 51 11  1  0
  1 52  1  0
  1 53  1  0
  1 54  1  0
  4 55  1  0
  5 56  1  1
  6 57  1  0
  6 58  1  0
  8 59  1  0
  8 60  1  0
 10 61  1  0
 12 62  1  0
 14 63  1  0
 15 64  1  0
 15 65  1  0
 17 66  1  0
 17 67  1  0
 18 68  1  1
 19 69  1  0
 22 70  1  1
 23 71  1  0
 23 72  1  0
 23 73  1  0
 24 74  1  0
 29 75  1  0
 30 76  1  6
 31 77  1  0
 31 78  1  0
 31 79  1  0
 34 80  1  0
 35 81  1  1
 36 82  1  0
 36 83  1  0
 36 84  1  0
 39 85  1  0
 40 86  1  1
 41 87  1  0
 41 88  1  0
 41 89  1  0
 44 90  1  0
 45 91  1  1
 47 92  1  0
 47 93  1  0
 49 94  1  0
 49 95  1  0
 51 96  1  0
 51 97  1  0
M  END
