
     RDKit          3D

147149  0  0  0  0  0  0  0  0999 V2000
   -4.3419    8.6319   -3.2597 C   0  0  0  0  0  0  0  0  0  0  0  0
   -4.0260    7.9827   -1.9505 C   0  0  0  0  0  0  0  0  0  0  0  0
   -3.6308    8.7058   -0.9999 O   0  0  0  0  0  0  0  0  0  0  0  0
   -4.1671    6.5568   -1.7881 N   0  0  0  0  0  0  0  0  0  0  0  0
   -3.7845    5.7908   -0.5909 C   0  0  1  0  0  0  0  0  0  0  0  0
   -2.2978    6.0150   -0.2238 C   0  0  0  0  0  0  0  0  0  0  0  0
   -1.1772    5.6830   -1.6393 S   0  0  0  0  0  0  0  0  0  0  0  0
   -1.3703    3.8621   -1.6782 C   0  0  0  0  0  0  0  0  0  0  0  0
   -0.0458    3.1803   -1.4977 C   0  0  0  0  0  0  0  0  0  0  0  0
    0.6410    3.2945   -0.2782 C   0  0  0  0  0  0  0  0  0  0  0  0
    1.8240    2.5737   -0.0570 C   0  0  0  0  0  0  0  0  0  0  0  0
    2.3347    1.7666   -1.0801 C   0  0  0  0  0  0  0  0  0  0  0  0
    1.6290    1.5963   -2.2785 C   0  0  0  0  0  0  0  0  0  0  0  0
    0.4489    2.3217   -2.4920 C   0  0  0  0  0  0  0  0  0  0  0  0
    2.0531    0.5371   -3.2590 C   0  0  0  0  0  0  0  0  0  0  0  0
    0.8747   -0.8686   -3.2678 S   0  0  0  0  0  0  0  0  0  0  0  0
    1.2202   -1.4967   -1.5765 C   0  0  0  0  0  0  0  0  0  0  0  0
    2.2827   -2.6104   -1.5939 C   0  0  2  0  0  0  0  0  0  0  0  0
    1.8620   -3.8196   -2.3216 N   0  0  0  0  0  0  0  0  0  0  0  0
    0.7358   -4.6919   -2.0785 C   0  0  0  0  0  0  0  0  0  0  0  0
    0.5175   -5.6144   -2.9130 O   0  0  0  0  0  0  0  0  0  0  0  0
   -0.2190   -4.5385   -0.9191 C   0  0  1  0  0  0  0  0  0  0  0  0
   -1.5833   -4.0311   -1.4033 C   0  0  0  0  0  0  0  0  0  0  0  0
   -0.3455   -5.7964   -0.1673 N   0  0  0  0  0  0  0  0  0  0  0  0
   -1.2471   -6.8634   -0.5208 C   0  0  0  0  0  0  0  0  0  0  0  0
   -1.1282   -7.4427   -1.6389 O   0  0  0  0  0  0  0  0  0  0  0  0
   -2.4243   -7.2229    0.3610 C   0  0  1  0  0  0  0  0  0  0  0  0
   -2.1183   -6.9415    1.8434 C   0  0  0  0  0  0  0  0  0  0  0  0
   -3.6030   -6.4682   -0.0804 N   0  0  0  0  0  0  0  0  0  0  0  0
   -4.8724   -6.5047    0.5795 C   0  0  0  0  0  0  0  0  0  0  0  0
   -5.1843   -7.4836    1.3100 O   0  0  0  0  0  0  0  0  0  0  0  0
   -5.8660   -5.3961    0.3166 C   0  0  1  0  0  0  0  0  0  0  0  0
   -6.8209   -5.8171   -0.8012 C   0  0  0  0  0  0  0  0  0  0  0  0
   -6.6181   -5.0597    1.5338 N   0  0  0  0  0  0  0  0  0  0  0  0
   -7.4535   -3.8967    1.7001 C   0  0  0  0  0  0  0  0  0  0  0  0
   -8.3630   -3.9367    2.5730 O   0  0  0  0  0  0  0  0  0  0  0  0
   -7.2760   -2.6137    0.9042 C   0  0  1  0  0  0  0  0  0  0  0  0
   -8.5693   -2.3184    0.1346 C   0  0  0  0  0  0  0  0  0  0  0  0
   -6.9581   -1.5111    1.8290 N   0  0  0  0  0  0  0  0  0  0  0  0
   -6.1747   -0.3570    1.4820 C   0  0  0  0  0  0  0  0  0  0  0  0
   -5.2657    0.0153    2.2761 O   0  0  0  0  0  0  0  0  0  0  0  0
   -6.5027    0.4984    0.2763 C   0  0  1  0  0  0  0  0  0  0  0  0
   -7.8796    1.1616    0.4815 C   0  0  0  0  0  0  0  0  0  0  0  0
   -5.4363    1.4927    0.0477 N   0  0  0  0  0  0  0  0  0  0  0  0
   -5.6370    2.9132    0.0771 C   0  0  0  0  0  0  0  0  0  0  0  0
   -6.1746    3.4810   -0.9104 O   0  0  0  0  0  0  0  0  0  0  0  0
   -5.3250    3.6942    1.3329 C   0  0  1  0  0  0  0  0  0  0  0  0
   -3.9180    3.4120    1.8672 C   0  0  0  0  0  0  0  0  0  0  0  0
   -5.5751    5.1356    1.1734 N   0  0  0  0  0  0  0  0  0  0  0  0
   -4.7000    6.1088    0.5720 C   0  0  0  0  0  0  0  0  0  0  0  0
   -4.7434    7.2906    1.0087 O   0  0  0  0  0  0  0  0  0  0  0  0
    2.8348   -2.9392   -0.2239 C   0  0  0  0  0  0  0  0  0  0  0  0
    2.1106   -2.8538    0.8028 O   0  0  0  0  0  0  0  0  0  0  0  0
    4.2013   -3.3374   -0.0842 N   0  0  0  0  0  0  0  0  0  0  0  0
    5.3239   -2.3989    0.0863 C   0  0  2  0  0  0  0  0  0  0  0  0
    4.9473   -0.9501   -0.2371 C   0  0  0  0  0  0  0  0  0  0  0  0
    6.4755   -2.8402   -0.7739 C   0  0  0  0  0  0  0  0  0  0  0  0
    6.2409   -3.2717   -1.9397 O   0  0  0  0  0  0  0  0  0  0  0  0
    7.8160   -2.8922   -0.2703 N   0  0  0  0  0  0  0  0  0  0  0  0
    8.5144   -1.7206    0.2851 C   0  0  2  0  0  0  0  0  0  0  0  0
   10.0328   -1.9128    0.1285 C   0  0  0  0  0  0  0  0  0  0  0  0
    8.1878   -1.5488    1.7518 C   0  0  0  0  0  0  0  0  0  0  0  0
    8.1199   -2.5844    2.4717 O   0  0  0  0  0  0  0  0  0  0  0  0
    8.0247   -0.2647    2.3865 N   0  0  0  0  0  0  0  0  0  0  0  0
    8.0448    1.0576    1.7260 C   0  0  2  0  0  0  0  0  0  0  0  0
    9.4576    1.4236    1.2596 C   0  0  0  0  0  0  0  0  0  0  0  0
    7.5643    2.1352    2.6806 C   0  0  0  0  0  0  0  0  0  0  0  0
    7.9551    2.1090    3.8823 O   0  0  0  0  0  0  0  0  0  0  0  0
    6.7147    3.2220    2.2669 N   0  0  0  0  0  0  0  0  0  0  0  0
    6.4436    3.6029    0.8740 C   0  0  2  0  0  0  0  0  0  0  0  0
    6.6028    5.0937    0.6894 C   0  0  0  0  0  0  0  0  0  0  0  0
    7.2143    5.6155   -0.4922 N   0  0  0  0  0  0  0  0  0  0  0  0
    6.1814    5.8958    1.5667 O   0  0  0  0  0  0  0  0  0  0  0  0
    5.0463    3.1266    0.4583 C   0  0  0  0  0  0  0  0  0  0  0  0
    3.7118    3.9320    1.4280 S   0  0  0  0  0  0  0  0  0  0  0  0
    2.4854    2.5876    1.2944 C   0  0  0  0  0  0  0  0  0  0  0  0
   -3.4380    9.1538   -3.6427 H   0  0  0  0  0  0  0  0  0  0  0  0
   -4.6624    7.8796   -4.0093 H   0  0  0  0  0  0  0  0  0  0  0  0
   -5.1576    9.3706   -3.1223 H   0  0  0  0  0  0  0  0  0  0  0  0
   -4.5202    6.0089   -2.6026 H   0  0  0  0  0  0  0  0  0  0  0  0
   -3.9069    4.7241   -0.8387 H   0  0  0  0  0  0  0  0  0  0  0  0
   -2.0079    5.3809    0.6372 H   0  0  0  0  0  0  0  0  0  0  0  0
   -2.1319    7.0621    0.0914 H   0  0  0  0  0  0  0  0  0  0  0  0
   -1.8390    3.5901   -2.6473 H   0  0  0  0  0  0  0  0  0  0  0  0
   -2.0468    3.4883   -0.8901 H   0  0  0  0  0  0  0  0  0  0  0  0
    0.2243    3.8968    0.5180 H   0  0  0  0  0  0  0  0  0  0  0  0
    3.2422    1.2043   -0.9127 H   0  0  0  0  0  0  0  0  0  0  0  0
   -0.1070    2.1812   -3.4105 H   0  0  0  0  0  0  0  0  0  0  0  0
    3.0742    0.1637   -3.0352 H   0  0  0  0  0  0  0  0  0  0  0  0
    2.0830    0.9785   -4.2775 H   0  0  0  0  0  0  0  0  0  0  0  0
    0.2689   -1.8333   -1.1358 H   0  0  0  0  0  0  0  0  0  0  0  0
    1.5717   -0.6877   -0.9134 H   0  0  0  0  0  0  0  0  0  0  0  0
    3.1378   -2.1917   -2.1652 H   0  0  0  0  0  0  0  0  0  0  0  0
    2.4530   -4.0710   -3.1485 H   0  0  0  0  0  0  0  0  0  0  0  0
    0.1635   -3.7927   -0.2108 H   0  0  0  0  0  0  0  0  0  0  0  0
   -2.0120   -4.7166   -2.1676 H   0  0  0  0  0  0  0  0  0  0  0  0
   -1.4933   -3.0279   -1.8672 H   0  0  0  0  0  0  0  0  0  0  0  0
   -2.2809   -3.9454   -0.5393 H   0  0  0  0  0  0  0  0  0  0  0  0
    0.0970   -5.8286    0.7793 H   0  0  0  0  0  0  0  0  0  0  0  0
   -2.6266   -8.3104    0.2567 H   0  0  0  0  0  0  0  0  0  0  0  0
   -2.0650   -5.8456    2.0297 H   0  0  0  0  0  0  0  0  0  0  0  0
   -2.9114   -7.3696    2.4916 H   0  0  0  0  0  0  0  0  0  0  0  0
   -1.1571   -7.4165    2.1399 H   0  0  0  0  0  0  0  0  0  0  0  0
   -3.5675   -5.9523   -0.9883 H   0  0  0  0  0  0  0  0  0  0  0  0
   -5.2825   -4.5145   -0.0139 H   0  0  0  0  0  0  0  0  0  0  0  0
   -7.4258   -6.6932   -0.4840 H   0  0  0  0  0  0  0  0  0  0  0  0
   -6.2460   -6.0942   -1.7125 H   0  0  0  0  0  0  0  0  0  0  0  0
   -7.5003   -4.9822   -1.0612 H   0  0  0  0  0  0  0  0  0  0  0  0
   -6.7141   -5.7920    2.2747 H   0  0  0  0  0  0  0  0  0  0  0  0
   -6.4542   -2.7119    0.1684 H   0  0  0  0  0  0  0  0  0  0  0  0
   -8.9407   -3.2303   -0.3730 H   0  0  0  0  0  0  0  0  0  0  0  0
   -9.3610   -1.9535    0.8242 H   0  0  0  0  0  0  0  0  0  0  0  0
   -8.3900   -1.5547   -0.6501 H   0  0  0  0  0  0  0  0  0  0  0  0
   -7.0768   -1.6764    2.8542 H   0  0  0  0  0  0  0  0  0  0  0  0
   -6.5563   -0.1561   -0.6180 H   0  0  0  0  0  0  0  0  0  0  0  0
   -8.1670    1.7320   -0.4270 H   0  0  0  0  0  0  0  0  0  0  0  0
   -7.8558    1.8480    1.3521 H   0  0  0  0  0  0  0  0  0  0  0  0
   -8.6628    0.4062    0.6676 H   0  0  0  0  0  0  0  0  0  0  0  0
   -4.4663    1.1479   -0.1212 H   0  0  0  0  0  0  0  0  0  0  0  0
   -6.0318    3.3233    2.1093 H   0  0  0  0  0  0  0  0  0  0  0  0
   -3.8818    2.4079    2.3373 H   0  0  0  0  0  0  0  0  0  0  0  0
   -3.6394    4.1648    2.6361 H   0  0  0  0  0  0  0  0  0  0  0  0
   -3.1693    3.4251    1.0559 H   0  0  0  0  0  0  0  0  0  0  0  0
   -6.3915    5.5196    1.7030 H   0  0  0  0  0  0  0  0  0  0  0  0
    4.3698   -4.3355    0.1768 H   0  0  0  0  0  0  0  0  0  0  0  0
    5.6339   -2.4310    1.1567 H   0  0  0  0  0  0  0  0  0  0  0  0
    4.1258   -0.6161    0.4272 H   0  0  0  0  0  0  0  0  0  0  0  0
    4.6602   -0.8318   -1.2992 H   0  0  0  0  0  0  0  0  0  0  0  0
    5.8124   -0.2889   -0.0603 H   0  0  0  0  0  0  0  0  0  0  0  0
    8.3885   -3.7111   -0.5868 H   0  0  0  0  0  0  0  0  0  0  0  0
    8.2189   -0.8204   -0.2914 H   0  0  0  0  0  0  0  0  0  0  0  0
   10.3001   -1.9048   -0.9522 H   0  0  0  0  0  0  0  0  0  0  0  0
   10.6037   -1.1106    0.6380 H   0  0  0  0  0  0  0  0  0  0  0  0
   10.3484   -2.8848    0.5669 H   0  0  0  0  0  0  0  0  0  0  0  0
    7.8349   -0.3060    3.4133 H   0  0  0  0  0  0  0  0  0  0  0  0
    7.3726    1.0217    0.8543 H   0  0  0  0  0  0  0  0  0  0  0  0
   10.2104    1.1444    2.0254 H   0  0  0  0  0  0  0  0  0  0  0  0
    9.5418    2.5166    1.0651 H   0  0  0  0  0  0  0  0  0  0  0  0
    9.6914    0.9238    0.2987 H   0  0  0  0  0  0  0  0  0  0  0  0
    6.2544    3.7720    3.0273 H   0  0  0  0  0  0  0  0  0  0  0  0
    7.1804    3.1184    0.1964 H   0  0  0  0  0  0  0  0  0  0  0  0
    7.2942    6.6480   -0.6304 H   0  0  0  0  0  0  0  0  0  0  0  0
    7.5665    4.9752   -1.2395 H   0  0  0  0  0  0  0  0  0  0  0  0
    5.0103    2.0264    0.5887 H   0  0  0  0  0  0  0  0  0  0  0  0
    4.8858    3.3436   -0.6189 H   0  0  0  0  0  0  0  0  0  0  0  0
    1.7195    2.7490    2.0832 H   0  0  0  0  0  0  0  0  0  0  0  0
    2.9536    1.6049    1.5209 H   0  0  0  0  0  0  0  0  0  0  0  0
  1  2  1  0
  2  3  2  0
  2  4  1  0
  4  5  1  0
  5  6  1  0
  6  7  1  0
  7  8  1  0
  8  9  1  0
  9 10  2  0
 10 11  1  0
 11 12  2  0
 12 13  1  0
 13 14  2  0
 13 15  1  0
 15 16  1  0
 16 17  1  0
 17 18  1  0
 18 19  1  0
 19 20  1  0
 20 21  2  0
 20 22  1  0
 22 23  1  0
 22 24  1  0
 24 25  1  0
 25 26  2  0
 25 27  1  0
 27 28  1  0
 27 29  1  0
 29 30  1  0
 30 31  2  0
 30 32  1  0
 32 33  1  0
 32 34  1  0
 34 35  1  0
 35 36  2  0
 35 37  1  0
 37 38  1  0
 37 39  1  0
 39 40  1  0
 40 41  2  0
 40 42  1  0
 42 43  1  0
 42 44  1  0
 44 45  1  0
 45 46  2  0
 45 47  1  0
 47 48  1  0
 47 49  1  0
 49 50  1  0
 50 51  2  0
 18 52  1  0
 52 53  2  0
 52 54  1  0
 54 55  1  0
 55 56  1  0
 55 57  1  0
 57 58  2  0
 57 59  1  0
 59 60  1  0
 60 61  1  0
 60 62  1  0
 62 63  2  0
 62 64  1  0
 64 65  1  0
 65 66  1  0
 65 67  1  0
 67 68  2  0
 67 69  1  0
 69 70  1  0
 70 71  1  0
 71 72  1  0
 71 73  2  0
 70 74  1  0
 74 75  1  0
 75 76  1  0
 50  5  1  0
 14  9  1  0
 76 11  1  0
  1 77  1  0
  1 78  1  0
  1 79  1  0
  4 80  1  0
  5 81  1  6
  6 82  1  0
  6 83  1  0
  8 84  1  0
  8 85  1  0
 10 86  1  0
 12 87  1  0
 14 88  1  0
 15 89  1  0
 15 90  1  0
 17 91  1  0
 17 92  1  0
 18 93  1  6
 19 94  1  0
 22 95  1  1
 23 96  1  0
 23 97  1  0
 23 98  1  0
 24 99  1  0
 27100  1  1
 28101  1  0
 28102  1  0
 28103  1  0
 29104  1  0
 32105  1  6
 33106  1  0
 33107  1  0
 33108  1  0
 34109  1  0
 37110  1  6
 38111  1  0
 38112  1  0
 38113  1  0
 39114  1  0
 42115  1  6
 43116  1  0
 43117  1  0
 43118  1  0
 44119  1  0
 47120  1  1
 48121  1  0
 48122  1  0
 48123  1  0
 49124  1  0
 54125  1  0
 55126  1  1
 56127  1  0
 56128  1  0
 56129  1  0
 59130  1  0
 60131  1  6
 61132  1  0
 61133  1  0
 61134  1  0
 64135  1  0
 65136  1  6
 66137  1  0
 66138  1  0
 66139  1  0
 69140  1  0
 70141  1  6
 72142  1  0
 72143  1  0
 74144  1  0
 74145  1  0
 76146  1  0
 76147  1  0
M  END
