
     RDKit          3D

157159  0  0  0  0  0  0  0  0999 V2000
    4.6081    7.9414    2.6238 C   0  0  0  0  0  0  0  0  0  0  0  0
    4.8720    6.4658    2.5901 C   0  0  0  0  0  0  0  0  0  0  0  0
    5.6509    5.9659    3.4438 O   0  0  0  0  0  0  0  0  0  0  0  0
    4.2545    5.6004    1.6233 N   0  0  0  0  0  0  0  0  0  0  0  0
    3.2733    6.0464    0.6245 C   0  0  2  0  0  0  0  0  0  0  0  0
    2.5955    4.8464   -0.0662 C   0  0  0  0  0  0  0  0  0  0  0  0
    1.1224    5.4028   -1.0083 S   0  0  0  0  0  0  0  0  0  0  0  0
    0.9148    3.8656   -1.9750 C   0  0  0  0  0  0  0  0  0  0  0  0
    0.3957    2.7530   -1.1015 C   0  0  0  0  0  0  0  0  0  0  0  0
   -0.8962    2.8218   -0.5561 C   0  0  0  0  0  0  0  0  0  0  0  0
   -1.3491    1.8310    0.3322 C   0  0  0  0  0  0  0  0  0  0  0  0
   -0.5014    0.7626    0.6572 C   0  0  0  0  0  0  0  0  0  0  0  0
    0.7333    0.6052    0.0009 C   0  0  0  0  0  0  0  0  0  0  0  0
    1.1930    1.6324   -0.8374 C   0  0  0  0  0  0  0  0  0  0  0  0
    1.6037   -0.6202    0.1942 C   0  0  0  0  0  0  0  0  0  0  0  0
    0.6866   -2.1746    0.5327 S   0  0  0  0  0  0  0  0  0  0  0  0
   -0.4162   -2.1504   -0.9224 C   0  0  0  0  0  0  0  0  0  0  0  0
   -1.3124   -3.4014   -0.9425 C   0  0  2  0  0  0  0  0  0  0  0  0
   -0.5302   -4.5708   -1.3675 N   0  0  0  0  0  0  0  0  0  0  0  0
   -0.3595   -5.7689   -0.5936 C   0  0  0  0  0  0  0  0  0  0  0  0
   -0.3523   -6.8767   -1.1935 O   0  0  0  0  0  0  0  0  0  0  0  0
   -0.0877   -5.7353    0.8972 C   0  0  1  0  0  0  0  0  0  0  0  0
   -0.7268   -6.9163    1.6360 C   0  0  0  0  0  0  0  0  0  0  0  0
    1.3534   -5.6691    1.1574 N   0  0  0  0  0  0  0  0  0  0  0  0
    2.2677   -6.7540    0.9599 C   0  0  0  0  0  0  0  0  0  0  0  0
    2.0780   -7.5861    0.0275 O   0  0  0  0  0  0  0  0  0  0  0  0
    3.4841   -6.8786    1.8481 C   0  0  1  0  0  0  0  0  0  0  0  0
    3.7356   -8.3457    2.2290 C   0  0  0  0  0  0  0  0  0  0  0  0
    4.6621   -6.3022    1.1836 N   0  0  0  0  0  0  0  0  0  0  0  0
    4.9853   -4.9018    1.2677 C   0  0  0  0  0  0  0  0  0  0  0  0
    4.2190   -4.1247    1.9024 O   0  0  0  0  0  0  0  0  0  0  0  0
    6.2616   -4.3227    0.6875 C   0  0  1  0  0  0  0  0  0  0  0  0
    6.9559   -5.2395   -0.3250 C   0  0  0  0  0  0  0  0  0  0  0  0
    5.9743   -3.0381    0.0403 N   0  0  0  0  0  0  0  0  0  0  0  0
    6.5425   -1.8254    0.5440 C   0  0  0  0  0  0  0  0  0  0  0  0
    6.4763   -1.5717    1.7778 O   0  0  0  0  0  0  0  0  0  0  0  0
    7.1979   -0.8368   -0.3837 C   0  0  1  0  0  0  0  0  0  0  0  0
    8.1880   -1.5447   -1.3148 C   0  0  0  0  0  0  0  0  0  0  0  0
    6.1913   -0.1213   -1.1684 N   0  0  0  0  0  0  0  0  0  0  0  0
    5.8199    1.2302   -0.8597 C   0  0  0  0  0  0  0  0  0  0  0  0
    4.7378    1.4426   -0.2478 O   0  0  0  0  0  0  0  0  0  0  0  0
    6.6406    2.4165   -1.3200 C   0  0  1  0  0  0  0  0  0  0  0  0
    8.0181    2.0356   -1.8672 C   0  0  0  0  0  0  0  0  0  0  0  0
    5.9041    3.1373   -2.3669 N   0  0  0  0  0  0  0  0  0  0  0  0
    5.6585    4.5529   -2.3969 C   0  0  0  0  0  0  0  0  0  0  0  0
    5.2927    5.0751   -3.4835 O   0  0  0  0  0  0  0  0  0  0  0  0
    5.8338    5.4370   -1.1816 C   0  0  1  0  0  0  0  0  0  0  0  0
    7.2928    5.8938   -1.0477 C   0  0  0  0  0  0  0  0  0  0  0  0
    4.9676    6.6182   -1.2862 N   0  0  0  0  0  0  0  0  0  0  0  0
    3.8936    6.9888   -0.3948 C   0  0  0  0  0  0  0  0  0  0  0  0
    3.4305    8.1561   -0.4660 O   0  0  0  0  0  0  0  0  0  0  0  0
   -2.4989   -3.2214   -1.8693 C   0  0  0  0  0  0  0  0  0  0  0  0
   -2.4319   -2.3968   -2.8220 O   0  0  0  0  0  0  0  0  0  0  0  0
   -3.7117   -3.9757   -1.7120 N   0  0  0  0  0  0  0  0  0  0  0  0
   -3.8275   -5.2306   -0.9531 C   0  0  2  0  0  0  0  0  0  0  0  0
   -3.7826   -6.4028   -1.9313 C   0  0  0  0  0  0  0  0  0  0  0  0
   -5.0996   -5.2848   -0.1436 C   0  0  0  0  0  0  0  0  0  0  0  0
   -5.2471   -6.2162    0.6937 O   0  0  0  0  0  0  0  0  0  0  0  0
   -6.1797   -4.3744   -0.3554 N   0  0  0  0  0  0  0  0  0  0  0  0
   -6.1062   -2.9622    0.0406 C   0  0  2  0  0  0  0  0  0  0  0  0
   -6.7465   -2.7926    1.4212 C   0  0  0  0  0  0  0  0  0  0  0  0
   -6.8119   -2.1019   -0.9769 C   0  0  0  0  0  0  0  0  0  0  0  0
   -7.2943   -2.6153   -2.0248 O   0  0  0  0  0  0  0  0  0  0  0  0
   -6.9947   -0.7043   -0.7342 N   0  0  0  0  0  0  0  0  0  0  0  0
   -8.3387   -0.1647   -0.5393 C   0  0  2  0  0  0  0  0  0  0  0  0
   -8.9948    0.1583   -1.8816 C   0  0  0  0  0  0  0  0  0  0  0  0
   -8.2854    1.0468    0.3521 C   0  0  0  0  0  0  0  0  0  0  0  0
   -8.5874    0.9296    1.5722 O   0  0  0  0  0  0  0  0  0  0  0  0
   -7.8538    2.3164   -0.1518 N   0  0  0  0  0  0  0  0  0  0  0  0
   -8.2268    3.5777    0.5023 C   0  0  2  0  0  0  0  0  0  0  0  0
   -9.7298    3.8329    0.3398 C   0  0  0  0  0  0  0  0  0  0  0  0
   -7.4238    4.7245   -0.0749 C   0  0  0  0  0  0  0  0  0  0  0  0
   -7.6399    5.0845   -1.2662 O   0  0  0  0  0  0  0  0  0  0  0  0
   -6.4650    5.4576    0.7064 N   0  0  0  0  0  0  0  0  0  0  0  0
   -5.4979    4.8620    1.6357 C   0  0  1  0  0  0  0  0  0  0  0  0
   -6.1547    4.5290    2.9559 C   0  0  0  0  0  0  0  0  0  0  0  0
   -6.9514    5.5057    3.6236 N   0  0  0  0  0  0  0  0  0  0  0  0
   -6.0197    3.3855    3.4736 O   0  0  0  0  0  0  0  0  0  0  0  0
   -4.7699    3.6692    0.9836 C   0  0  0  0  0  0  0  0  0  0  0  0
   -3.1443    3.3551    1.7756 S   0  0  0  0  0  0  0  0  0  0  0  0
   -2.7795    1.8413    0.8104 C   0  0  0  0  0  0  0  0  0  0  0  0
    3.5207    8.1317    2.7388 H   0  0  0  0  0  0  0  0  0  0  0  0
    5.1388    8.4125    3.4819 H   0  0  0  0  0  0  0  0  0  0  0  0
    4.9816    8.4164    1.6914 H   0  0  0  0  0  0  0  0  0  0  0  0
    4.4464    4.5765    1.7108 H   0  0  0  0  0  0  0  0  0  0  0  0
    2.4667    6.5890    1.1659 H   0  0  0  0  0  0  0  0  0  0  0  0
    2.2582    4.1241    0.7049 H   0  0  0  0  0  0  0  0  0  0  0  0
    3.3060    4.3287   -0.7363 H   0  0  0  0  0  0  0  0  0  0  0  0
    0.1983    4.0667   -2.8007 H   0  0  0  0  0  0  0  0  0  0  0  0
    1.8794    3.5980   -2.4509 H   0  0  0  0  0  0  0  0  0  0  0  0
   -1.5505    3.6475   -0.8160 H   0  0  0  0  0  0  0  0  0  0  0  0
   -0.8422   -0.0041    1.3430 H   0  0  0  0  0  0  0  0  0  0  0  0
    2.1767    1.5638   -1.2904 H   0  0  0  0  0  0  0  0  0  0  0  0
    2.2298   -0.7906   -0.7045 H   0  0  0  0  0  0  0  0  0  0  0  0
    2.2973   -0.4371    1.0443 H   0  0  0  0  0  0  0  0  0  0  0  0
   -1.0753   -1.2616   -0.8555 H   0  0  0  0  0  0  0  0  0  0  0  0
    0.1645   -2.0672   -1.8631 H   0  0  0  0  0  0  0  0  0  0  0  0
   -1.7214   -3.5290    0.0774 H   0  0  0  0  0  0  0  0  0  0  0  0
   -0.2630   -4.6200   -2.3779 H   0  0  0  0  0  0  0  0  0  0  0  0
   -0.5396   -4.8219    1.3342 H   0  0  0  0  0  0  0  0  0  0  0  0
   -0.3154   -7.8792    1.2740 H   0  0  0  0  0  0  0  0  0  0  0  0
   -0.5252   -6.8294    2.7265 H   0  0  0  0  0  0  0  0  0  0  0  0
   -1.8249   -6.9148    1.4740 H   0  0  0  0  0  0  0  0  0  0  0  0
    1.7640   -4.7313    1.3939 H   0  0  0  0  0  0  0  0  0  0  0  0
    3.2922   -6.3313    2.7960 H   0  0  0  0  0  0  0  0  0  0  0  0
    3.9666   -8.9574    1.3277 H   0  0  0  0  0  0  0  0  0  0  0  0
    4.5979   -8.4086    2.9291 H   0  0  0  0  0  0  0  0  0  0  0  0
    2.8423   -8.7709    2.7359 H   0  0  0  0  0  0  0  0  0  0  0  0
    5.3317   -6.9656    0.7264 H   0  0  0  0  0  0  0  0  0  0  0  0
    6.9679   -4.1717    1.5359 H   0  0  0  0  0  0  0  0  0  0  0  0
    7.8001   -4.7013   -0.8110 H   0  0  0  0  0  0  0  0  0  0  0  0
    6.2406   -5.5607   -1.1178 H   0  0  0  0  0  0  0  0  0  0  0  0
    7.3842   -6.1388    0.1809 H   0  0  0  0  0  0  0  0  0  0  0  0
    5.5467   -3.0408   -0.9115 H   0  0  0  0  0  0  0  0  0  0  0  0
    7.7689   -0.1140    0.2398 H   0  0  0  0  0  0  0  0  0  0  0  0
    8.9096   -2.1385   -0.7179 H   0  0  0  0  0  0  0  0  0  0  0  0
    7.6588   -2.2245   -2.0159 H   0  0  0  0  0  0  0  0  0  0  0  0
    8.7663   -0.8030   -1.9070 H   0  0  0  0  0  0  0  0  0  0  0  0
    5.5547   -0.6680   -1.7977 H   0  0  0  0  0  0  0  0  0  0  0  0
    6.8070    3.0549   -0.4335 H   0  0  0  0  0  0  0  0  0  0  0  0
    8.5360    2.9431   -2.2406 H   0  0  0  0  0  0  0  0  0  0  0  0
    7.9222    1.3223   -2.7120 H   0  0  0  0  0  0  0  0  0  0  0  0
    8.6504    1.5962   -1.0700 H   0  0  0  0  0  0  0  0  0  0  0  0
    5.6566    2.5943   -3.2270 H   0  0  0  0  0  0  0  0  0  0  0  0
    5.5753    4.8537   -0.2848 H   0  0  0  0  0  0  0  0  0  0  0  0
    7.9788    5.0316   -0.9546 H   0  0  0  0  0  0  0  0  0  0  0  0
    7.5955    6.4897   -1.9387 H   0  0  0  0  0  0  0  0  0  0  0  0
    7.4021    6.5289   -0.1430 H   0  0  0  0  0  0  0  0  0  0  0  0
    5.1873    7.3011   -2.0413 H   0  0  0  0  0  0  0  0  0  0  0  0
   -4.5098   -3.7233   -2.3434 H   0  0  0  0  0  0  0  0  0  0  0  0
   -2.9868   -5.3333   -0.2440 H   0  0  0  0  0  0  0  0  0  0  0  0
   -2.8456   -6.3667   -2.5334 H   0  0  0  0  0  0  0  0  0  0  0  0
   -4.6460   -6.3578   -2.6288 H   0  0  0  0  0  0  0  0  0  0  0  0
   -3.8166   -7.3676   -1.3840 H   0  0  0  0  0  0  0  0  0  0  0  0
   -7.1304   -4.7952   -0.4838 H   0  0  0  0  0  0  0  0  0  0  0  0
   -5.0484   -2.6335    0.1088 H   0  0  0  0  0  0  0  0  0  0  0  0
   -7.8307   -3.0637    1.3890 H   0  0  0  0  0  0  0  0  0  0  0  0
   -6.2468   -3.4517    2.1599 H   0  0  0  0  0  0  0  0  0  0  0  0
   -6.6497   -1.7415    1.7731 H   0  0  0  0  0  0  0  0  0  0  0  0
   -6.1895   -0.0543   -0.9215 H   0  0  0  0  0  0  0  0  0  0  0  0
   -8.9620   -0.9350   -0.0304 H   0  0  0  0  0  0  0  0  0  0  0  0
   -8.3475    0.8221   -2.4964 H   0  0  0  0  0  0  0  0  0  0  0  0
   -9.1727   -0.7742   -2.4521 H   0  0  0  0  0  0  0  0  0  0  0  0
   -9.9741    0.6587   -1.7174 H   0  0  0  0  0  0  0  0  0  0  0  0
   -7.3360    2.3486   -1.0619 H   0  0  0  0  0  0  0  0  0  0  0  0
   -8.0266    3.4861    1.5895 H   0  0  0  0  0  0  0  0  0  0  0  0
  -10.0054    4.7990    0.8204 H   0  0  0  0  0  0  0  0  0  0  0  0
  -10.3127    3.0266    0.8222 H   0  0  0  0  0  0  0  0  0  0  0  0
  -10.0122    3.8685   -0.7371 H   0  0  0  0  0  0  0  0  0  0  0  0
   -6.3075    6.4573    0.4406 H   0  0  0  0  0  0  0  0  0  0  0  0
   -4.7338    5.6386    1.8620 H   0  0  0  0  0  0  0  0  0  0  0  0
   -7.3918    5.2918    4.5449 H   0  0  0  0  0  0  0  0  0  0  0  0
   -7.0620    6.4673    3.2258 H   0  0  0  0  0  0  0  0  0  0  0  0
   -4.5815    3.8960   -0.0905 H   0  0  0  0  0  0  0  0  0  0  0  0
   -5.3969    2.7514    1.0399 H   0  0  0  0  0  0  0  0  0  0  0  0
   -3.4328    1.7510   -0.0848 H   0  0  0  0  0  0  0  0  0  0  0  0
   -2.9941    0.9647    1.4632 H   0  0  0  0  0  0  0  0  0  0  0  0
  1  2  1  0
  2  3  2  0
  2  4  1  0
  4  5  1  0
  5  6  1  0
  6  7  1  0
  7  8  1  0
  8  9  1  0
  9 10  2  0
 10 11  1  0
 11 12  2  0
 12 13  1  0
 13 14  2  0
 13 15  1  0
 15 16  1  0
 16 17  1  0
 17 18  1  0
 18 19  1  0
 19 20  1  0
 20 21  2  0
 20 22  1  0
 22 23  1  0
 22 24  1  0
 24 25  1  0
 25 26  2  0
 25 27  1  0
 27 28  1  0
 27 29  1  0
 29 30  1  0
 30 31  2  0
 30 32  1  0
 32 33  1  0
 32 34  1  0
 34 35  1  0
 35 36  2  0
 35 37  1  0
 37 38  1  0
 37 39  1  0
 39 40  1  0
 40 41  2  0
 40 42  1  0
 42 43  1  0
 42 44  1  0
 44 45  1  0
 45 46  2  0
 45 47  1  0
 47 48  1  0
 47 49  1  0
 49 50  1  0
 50 51  2  0
 18 52  1  0
 52 53  2  0
 52 54  1  0
 54 55  1  0
 55 56  1  0
 55 57  1  0
 57 58  2  0
 57 59  1  0
 59 60  1  0
 60 61  1  0
 60 62  1  0
 62 63  2  0
 62 64  1  0
 64 65  1  0
 65 66  1  0
 65 67  1  0
 67 68  2  0
 67 69  1  0
 69 70  1  0
 70 71  1  0
 70 72  1  0
 72 73  2  0
 72 74  1  0
 74 75  1  0
 75 76  1  0
 76 77  1  0
 76 78  2  0
 75 79  1  0
 79 80  1  0
 80 81  1  0
 50  5  1  0
 14  9  1  0
 81 11  1  0
  1 82  1  0
  1 83  1  0
  1 84  1  0
  4 85  1  0
  5 86  1  1
  6 87  1  0
  6 88  1  0
  8 89  1  0
  8 90  1  0
 10 91  1  0
 12 92  1  0
 14 93  1  0
 15 94  1  0
 15 95  1  0
 17 96  1  0
 17 97  1  0
 18 98  1  1
 19 99  1  0
 22100  1  1
 23101  1  0
 23102  1  0
 23103  1  0
 24104  1  0
 27105  1  1
 28106  1  0
 28107  1  0
 28108  1  0
 29109  1  0
 32110  1  1
 33111  1  0
 33112  1  0
 33113  1  0
 34114  1  0
 37115  1  1
 38116  1  0
 38117  1  0
 38118  1  0
 39119  1  0
 42120  1  1
 43121  1  0
 43122  1  0
 43123  1  0
 44124  1  0
 47125  1  1
 48126  1  0
 48127  1  0
 48128  1  0
 49129  1  0
 54130  1  0
 55131  1  1
 56132  1  0
 56133  1  0
 56134  1  0
 59135  1  0
 60136  1  1
 61137  1  0
 61138  1  0
 61139  1  0
 64140  1  0
 65141  1  1
 66142  1  0
 66143  1  0
 66144  1  0
 69145  1  0
 70146  1  1
 71147  1  0
 71148  1  0
 71149  1  0
 74150  1  0
 75151  1  1
 77152  1  0
 77153  1  0
 79154  1  0
 79155  1  0
 81156  1  0
 81157  1  0
M  END
