
     RDKit          3D

147149  0  0  0  0  0  0  0  0999 V2000
   -2.6977    6.2739   -3.0192 C   0  0  0  0  0  0  0  0  0  0  0  0
   -4.1609    6.1723   -2.6861 C   0  0  0  0  0  0  0  0  0  0  0  0
   -4.9903    6.4255   -3.6003 O   0  0  0  0  0  0  0  0  0  0  0  0
   -4.6570    5.8165   -1.3797 N   0  0  0  0  0  0  0  0  0  0  0  0
   -3.8230    5.3258   -0.2649 C   0  0  2  0  0  0  0  0  0  0  0  0
   -3.3368    3.8900   -0.5332 C   0  0  0  0  0  0  0  0  0  0  0  0
   -1.9382    3.4162    0.5521 S   0  0  0  0  0  0  0  0  0  0  0  0
   -0.6306    3.6555   -0.6955 C   0  0  0  0  0  0  0  0  0  0  0  0
    0.6694    3.1085   -0.1856 C   0  0  0  0  0  0  0  0  0  0  0  0
    1.7038    3.9818    0.1886 C   0  0  0  0  0  0  0  0  0  0  0  0
    2.9509    3.4757    0.5797 C   0  0  0  0  0  0  0  0  0  0  0  0
    3.1538    2.0862    0.6217 C   0  0  0  0  0  0  0  0  0  0  0  0
    2.1130    1.1946    0.3014 C   0  0  0  0  0  0  0  0  0  0  0  0
    0.8800    1.7161   -0.1370 C   0  0  0  0  0  0  0  0  0  0  0  0
    2.4228   -0.2872    0.3372 C   0  0  0  0  0  0  0  0  0  0  0  0
    0.9498   -1.3774    0.3217 S   0  0  0  0  0  0  0  0  0  0  0  0
    1.8198   -2.9643    0.6088 C   0  0  0  0  0  0  0  0  0  0  0  0
    1.8323   -3.8582   -0.6444 C   0  0  2  0  0  0  0  0  0  0  0  0
    1.9483   -5.2588   -0.2179 N   0  0  0  0  0  0  0  0  0  0  0  0
    1.0002   -6.3099   -0.4912 C   0  0  0  0  0  0  0  0  0  0  0  0
    1.2931   -7.4821   -0.1320 O   0  0  0  0  0  0  0  0  0  0  0  0
   -0.3604   -6.0338   -1.0970 C   0  0  1  0  0  0  0  0  0  0  0  0
   -1.0446   -7.3236   -1.5803 C   0  0  0  0  0  0  0  0  0  0  0  0
   -1.2206   -5.3879   -0.1020 N   0  0  0  0  0  0  0  0  0  0  0  0
   -2.3668   -4.6198   -0.4960 C   0  0  0  0  0  0  0  0  0  0  0  0
   -2.3066   -3.8960   -1.5292 O   0  0  0  0  0  0  0  0  0  0  0  0
   -3.6238   -4.6528    0.3311 C   0  0  1  0  0  0  0  0  0  0  0  0
   -3.6958   -3.3971    1.2123 C   0  0  0  0  0  0  0  0  0  0  0  0
   -4.7871   -4.7933   -0.5462 N   0  0  0  0  0  0  0  0  0  0  0  0
   -6.1258   -4.4940   -0.1235 C   0  0  0  0  0  0  0  0  0  0  0  0
   -6.8156   -5.3862    0.4388 O   0  0  0  0  0  0  0  0  0  0  0  0
   -6.7218   -3.1599   -0.4740 C   0  0  1  0  0  0  0  0  0  0  0  0
   -7.1058   -3.1132   -1.9548 C   0  0  0  0  0  0  0  0  0  0  0  0
   -7.8826   -2.8578    0.3667 N   0  0  0  0  0  0  0  0  0  0  0  0
   -7.7352   -2.0583    1.5442 C   0  0  0  0  0  0  0  0  0  0  0  0
   -6.8487   -2.3523    2.3920 O   0  0  0  0  0  0  0  0  0  0  0  0
   -8.6236   -0.8545    1.7440 C   0  0  1  0  0  0  0  0  0  0  0  0
   -8.3461   -0.0934    3.0461 C   0  0  0  0  0  0  0  0  0  0  0  0
   -8.5761    0.0425    0.5740 N   0  0  0  0  0  0  0  0  0  0  0  0
   -7.4135    0.6449   -0.0369 C   0  0  0  0  0  0  0  0  0  0  0  0
   -7.5636    1.2298   -1.1422 O   0  0  0  0  0  0  0  0  0  0  0  0
   -6.0281    0.6245    0.5952 C   0  0  1  0  0  0  0  0  0  0  0  0
   -4.9402    0.4570   -0.4778 C   0  0  0  0  0  0  0  0  0  0  0  0
   -5.7478    1.8291    1.3882 N   0  0  0  0  0  0  0  0  0  0  0  0
   -6.6638    2.9127    1.5771 C   0  0  0  0  0  0  0  0  0  0  0  0
   -7.3347    2.9640    2.6414 O   0  0  0  0  0  0  0  0  0  0  0  0
   -6.7078    4.0597    0.6065 C   0  0  1  0  0  0  0  0  0  0  0  0
   -8.1534    4.4510    0.2783 C   0  0  0  0  0  0  0  0  0  0  0  0
   -5.9924    5.2051    1.1769 N   0  0  0  0  0  0  0  0  0  0  0  0
   -4.5703    5.4140    1.0549 C   0  0  0  0  0  0  0  0  0  0  0  0
   -3.9175    5.7456    2.0854 O   0  0  0  0  0  0  0  0  0  0  0  0
    2.9797   -3.4927   -1.5666 C   0  0  0  0  0  0  0  0  0  0  0  0
    2.9685   -2.3730   -2.1450 O   0  0  0  0  0  0  0  0  0  0  0  0
    4.0843   -4.3801   -1.7908 N   0  0  0  0  0  0  0  0  0  0  0  0
    5.4457   -3.8855   -2.0344 C   0  0  2  0  0  0  0  0  0  0  0  0
    6.3228   -4.9938   -2.6282 C   0  0  0  0  0  0  0  0  0  0  0  0
    6.0387   -3.3716   -0.7521 C   0  0  0  0  0  0  0  0  0  0  0  0
    6.2143   -4.1550    0.2221 O   0  0  0  0  0  0  0  0  0  0  0  0
    6.3594   -1.9831   -0.6128 N   0  0  0  0  0  0  0  0  0  0  0  0
    7.7258   -1.4747   -0.4702 C   0  0  2  0  0  0  0  0  0  0  0  0
    8.6730   -2.1624   -1.4577 C   0  0  0  0  0  0  0  0  0  0  0  0
    8.2085   -1.6310    0.9584 C   0  0  0  0  0  0  0  0  0  0  0  0
    8.4131   -2.7935    1.4031 O   0  0  0  0  0  0  0  0  0  0  0  0
    8.4079   -0.5118    1.8381 N   0  0  0  0  0  0  0  0  0  0  0  0
    8.6495    0.8776    1.4055 C   0  0  2  0  0  0  0  0  0  0  0  0
    9.9808    0.9688    0.6512 C   0  0  0  0  0  0  0  0  0  0  0  0
    8.7000    1.7897    2.6148 C   0  0  0  0  0  0  0  0  0  0  0  0
    9.5037    1.5102    3.5526 O   0  0  0  0  0  0  0  0  0  0  0  0
    7.8649    2.9577    2.7430 N   0  0  0  0  0  0  0  0  0  0  0  0
    7.3438    3.7344    1.6085 C   0  0  2  0  0  0  0  0  0  0  0  0
    8.4807    4.3022    0.8008 C   0  0  0  0  0  0  0  0  0  0  0  0
    8.5573    4.0695   -0.6069 N   0  0  0  0  0  0  0  0  0  0  0  0
    9.3591    5.0102    1.3644 O   0  0  0  0  0  0  0  0  0  0  0  0
    6.4299    4.8778    2.0989 C   0  0  0  0  0  0  0  0  0  0  0  0
    4.7643    4.2360    2.5093 S   0  0  0  0  0  0  0  0  0  0  0  0
    4.1045    4.4121    0.8123 C   0  0  0  0  0  0  0  0  0  0  0  0
   -2.0352    6.1468   -2.1421 H   0  0  0  0  0  0  0  0  0  0  0  0
   -2.4365    5.5030   -3.7755 H   0  0  0  0  0  0  0  0  0  0  0  0
   -2.4929    7.2771   -3.4568 H   0  0  0  0  0  0  0  0  0  0  0  0
   -5.6942    5.8136   -1.2822 H   0  0  0  0  0  0  0  0  0  0  0  0
   -2.9344    5.9886   -0.1723 H   0  0  0  0  0  0  0  0  0  0  0  0
   -3.0775    3.7657   -1.6117 H   0  0  0  0  0  0  0  0  0  0  0  0
   -4.1507    3.1810   -0.3275 H   0  0  0  0  0  0  0  0  0  0  0  0
   -0.8870    3.1399   -1.6467 H   0  0  0  0  0  0  0  0  0  0  0  0
   -0.5478    4.7463   -0.9039 H   0  0  0  0  0  0  0  0  0  0  0  0
    1.5420    5.0553    0.1498 H   0  0  0  0  0  0  0  0  0  0  0  0
    4.1267    1.6988    0.9017 H   0  0  0  0  0  0  0  0  0  0  0  0
    0.0836    1.0637   -0.4657 H   0  0  0  0  0  0  0  0  0  0  0  0
    2.9918   -0.5019    1.2632 H   0  0  0  0  0  0  0  0  0  0  0  0
    3.0700   -0.5255   -0.5286 H   0  0  0  0  0  0  0  0  0  0  0  0
    2.8483   -2.8196    1.0014 H   0  0  0  0  0  0  0  0  0  0  0  0
    1.2520   -3.4834    1.4051 H   0  0  0  0  0  0  0  0  0  0  0  0
    0.8891   -3.7006   -1.2019 H   0  0  0  0  0  0  0  0  0  0  0  0
    2.7811   -5.5200    0.3548 H   0  0  0  0  0  0  0  0  0  0  0  0
   -0.2386   -5.3874   -1.9886 H   0  0  0  0  0  0  0  0  0  0  0  0
   -2.0176   -7.0807   -2.0647 H   0  0  0  0  0  0  0  0  0  0  0  0
   -0.4041   -7.8522   -2.3281 H   0  0  0  0  0  0  0  0  0  0  0  0
   -1.2465   -8.0061   -0.7289 H   0  0  0  0  0  0  0  0  0  0  0  0
   -1.2051   -5.7724    0.8702 H   0  0  0  0  0  0  0  0  0  0  0  0
   -3.5910   -5.5405    1.0032 H   0  0  0  0  0  0  0  0  0  0  0  0
   -3.7823   -2.4805    0.5943 H   0  0  0  0  0  0  0  0  0  0  0  0
   -4.5686   -3.4690    1.8963 H   0  0  0  0  0  0  0  0  0  0  0  0
   -2.7839   -3.3173    1.8372 H   0  0  0  0  0  0  0  0  0  0  0  0
   -4.7115   -5.4671   -1.3428 H   0  0  0  0  0  0  0  0  0  0  0  0
   -5.9441   -2.3941   -0.3039 H   0  0  0  0  0  0  0  0  0  0  0  0
   -7.9228   -3.8368   -2.1782 H   0  0  0  0  0  0  0  0  0  0  0  0
   -6.2271   -3.3446   -2.5890 H   0  0  0  0  0  0  0  0  0  0  0  0
   -7.4488   -2.0869   -2.2179 H   0  0  0  0  0  0  0  0  0  0  0  0
   -8.8437   -2.9623   -0.0324 H   0  0  0  0  0  0  0  0  0  0  0  0
   -9.6628   -1.2513    1.8249 H   0  0  0  0  0  0  0  0  0  0  0  0
   -7.2932    0.2451    3.1059 H   0  0  0  0  0  0  0  0  0  0  0  0
   -8.5591   -0.7526    3.9127 H   0  0  0  0  0  0  0  0  0  0  0  0
   -9.0119    0.7966    3.1135 H   0  0  0  0  0  0  0  0  0  0  0  0
   -9.4856    0.1831    0.0719 H   0  0  0  0  0  0  0  0  0  0  0  0
   -5.9321   -0.2472    1.2620 H   0  0  0  0  0  0  0  0  0  0  0  0
   -3.9373    0.4275   -0.0006 H   0  0  0  0  0  0  0  0  0  0  0  0
   -4.9649    1.2883   -1.2113 H   0  0  0  0  0  0  0  0  0  0  0  0
   -5.0861   -0.4866   -1.0458 H   0  0  0  0  0  0  0  0  0  0  0  0
   -4.9192    1.7946    2.0260 H   0  0  0  0  0  0  0  0  0  0  0  0
   -6.2448    3.7392   -0.3484 H   0  0  0  0  0  0  0  0  0  0  0  0
   -8.6996    3.5762   -0.1331 H   0  0  0  0  0  0  0  0  0  0  0  0
   -8.1588    5.2524   -0.4877 H   0  0  0  0  0  0  0  0  0  0  0  0
   -8.6828    4.8139    1.1850 H   0  0  0  0  0  0  0  0  0  0  0  0
   -6.4509    5.6886    1.9822 H   0  0  0  0  0  0  0  0  0  0  0  0
    3.9340   -5.4138   -1.7257 H   0  0  0  0  0  0  0  0  0  0  0  0
    5.4089   -3.0611   -2.7757 H   0  0  0  0  0  0  0  0  0  0  0  0
    5.8682   -5.3582   -3.5701 H   0  0  0  0  0  0  0  0  0  0  0  0
    7.3362   -4.5996   -2.8598 H   0  0  0  0  0  0  0  0  0  0  0  0
    6.4260   -5.8472   -1.9203 H   0  0  0  0  0  0  0  0  0  0  0  0
    5.5585   -1.3131   -0.4696 H   0  0  0  0  0  0  0  0  0  0  0  0
    7.7064   -0.4049   -0.7570 H   0  0  0  0  0  0  0  0  0  0  0  0
    8.3003   -2.0299   -2.4973 H   0  0  0  0  0  0  0  0  0  0  0  0
    8.7617   -3.2512   -1.2437 H   0  0  0  0  0  0  0  0  0  0  0  0
    9.6901   -1.7124   -1.3891 H   0  0  0  0  0  0  0  0  0  0  0  0
    8.5005   -0.7479    2.8565 H   0  0  0  0  0  0  0  0  0  0  0  0
    7.8304    1.1977    0.7354 H   0  0  0  0  0  0  0  0  0  0  0  0
   10.7982    0.5176    1.2476 H   0  0  0  0  0  0  0  0  0  0  0  0
   10.2351    2.0278    0.4387 H   0  0  0  0  0  0  0  0  0  0  0  0
    9.9142    0.4376   -0.3227 H   0  0  0  0  0  0  0  0  0  0  0  0
    7.7346    3.3277    3.7170 H   0  0  0  0  0  0  0  0  0  0  0  0
    6.7371    3.0666    0.9603 H   0  0  0  0  0  0  0  0  0  0  0  0
    9.3653    4.4321   -1.1561 H   0  0  0  0  0  0  0  0  0  0  0  0
    7.8321    3.4923   -1.0925 H   0  0  0  0  0  0  0  0  0  0  0  0
    6.8663    5.3598    3.0012 H   0  0  0  0  0  0  0  0  0  0  0  0
    6.3432    5.6723    1.3238 H   0  0  0  0  0  0  0  0  0  0  0  0
    4.8859    4.1942    0.0497 H   0  0  0  0  0  0  0  0  0  0  0  0
    3.8012    5.4697    0.6685 H   0  0  0  0  0  0  0  0  0  0  0  0
  1  2  1  0
  2  3  2  0
  2  4  1  0
  4  5  1  0
  5  6  1  0
  6  7  1  0
  7  8  1  0
  8  9  1  0
  9 10  2  0
 10 11  1  0
 11 12  2  0
 12 13  1  0
 13 14  2  0
 13 15  1  0
 15 16  1  0
 16 17  1  0
 17 18  1  0
 18 19  1  0
 19 20  1  0
 20 21  2  0
 20 22  1  0
 22 23  1  0
 22 24  1  0
 24 25  1  0
 25 26  2  0
 25 27  1  0
 27 28  1  0
 27 29  1  0
 29 30  1  0
 30 31  2  0
 30 32  1  0
 32 33  1  0
 32 34  1  0
 34 35  1  0
 35 36  2  0
 35 37  1  0
 37 38  1  0
 37 39  1  0
 39 40  1  0
 40 41  2  0
 40 42  1  0
 42 43  1  0
 42 44  1  0
 44 45  1  0
 45 46  2  0
 45 47  1  0
 47 48  1  0
 47 49  1  0
 49 50  1  0
 50 51  2  0
 18 52  1  0
 52 53  2  0
 52 54  1  0
 54 55  1  0
 55 56  1  0
 55 57  1  0
 57 58  2  0
 57 59  1  0
 59 60  1  0
 60 61  1  0
 60 62  1  0
 62 63  2  0
 62 64  1  0
 64 65  1  0
 65 66  1  0
 65 67  1  0
 67 68  2  0
 67 69  1  0
 69 70  1  0
 70 71  1  0
 71 72  1  0
 71 73  2  0
 70 74  1  0
 74 75  1  0
 75 76  1  0
 50  5  1  0
 14  9  1  0
 76 11  1  0
  1 77  1  0
  1 78  1  0
  1 79  1  0
  4 80  1  0
  5 81  1  1
  6 82  1  0
  6 83  1  0
  8 84  1  0
  8 85  1  0
 10 86  1  0
 12 87  1  0
 14 88  1  0
 15 89  1  0
 15 90  1  0
 17 91  1  0
 17 92  1  0
 18 93  1  6
 19 94  1  0
 22 95  1  6
 23 96  1  0
 23 97  1  0
 23 98  1  0
 24 99  1  0
 27100  1  1
 28101  1  0
 28102  1  0
 28103  1  0
 29104  1  0
 32105  1  6
 33106  1  0
 33107  1  0
 33108  1  0
 34109  1  0
 37110  1  1
 38111  1  0
 38112  1  0
 38113  1  0
 39114  1  0
 42115  1  1
 43116  1  0
 43117  1  0
 43118  1  0
 44119  1  0
 47120  1  6
 48121  1  0
 48122  1  0
 48123  1  0
 49124  1  0
 54125  1  0
 55126  1  6
 56127  1  0
 56128  1  0
 56129  1  0
 59130  1  0
 60131  1  6
 61132  1  0
 61133  1  0
 61134  1  0
 64135  1  0
 65136  1  6
 66137  1  0
 66138  1  0
 66139  1  0
 69140  1  0
 70141  1  6
 72142  1  0
 72143  1  0
 74144  1  0
 74145  1  0
 76146  1  0
 76147  1  0
M  END
