
     RDKit          3D

177179  0  0  0  0  0  0  0  0999 V2000
    4.6277   -7.1392   -0.6122 C   0  0  0  0  0  0  0  0  0  0  0  0
    5.2019   -5.9362   -1.2947 C   0  0  0  0  0  0  0  0  0  0  0  0
    5.3883   -5.9678   -2.5406 O   0  0  0  0  0  0  0  0  0  0  0  0
    5.5571   -4.7493   -0.5681 N   0  0  0  0  0  0  0  0  0  0  0  0
    5.4049   -4.6112    0.8882 C   0  0  2  0  0  0  0  0  0  0  0  0
    5.1830   -3.1399    1.2889 C   0  0  0  0  0  0  0  0  0  0  0  0
    3.8285   -2.3631    0.3271 S   0  0  0  0  0  0  0  0  0  0  0  0
    2.4349   -2.9862    1.3358 C   0  0  0  0  0  0  0  0  0  0  0  0
    1.1570   -2.8439    0.5474 C   0  0  0  0  0  0  0  0  0  0  0  0
    0.6442   -3.9371   -0.1712 C   0  0  0  0  0  0  0  0  0  0  0  0
   -0.5136   -3.8033   -0.9537 C   0  0  0  0  0  0  0  0  0  0  0  0
   -1.1262   -2.5427   -1.0515 C   0  0  0  0  0  0  0  0  0  0  0  0
   -0.6584   -1.4534   -0.3027 C   0  0  0  0  0  0  0  0  0  0  0  0
    0.4934   -1.6052    0.4877 C   0  0  0  0  0  0  0  0  0  0  0  0
   -1.3813   -0.1385   -0.3756 C   0  0  0  0  0  0  0  0  0  0  0  0
   -1.0231    0.6912   -1.9676 S   0  0  0  0  0  0  0  0  0  0  0  0
    0.3614    1.7393   -1.3895 C   0  0  0  0  0  0  0  0  0  0  0  0
   -0.0861    3.1927   -1.1559 C   0  0  2  0  0  0  0  0  0  0  0  0
    1.0891    4.0628   -1.0401 N   0  0  0  0  0  0  0  0  0  0  0  0
    0.9605    5.4969   -1.0373 C   0  0  0  0  0  0  0  0  0  0  0  0
    0.0227    6.0294   -1.6945 O   0  0  0  0  0  0  0  0  0  0  0  0
    1.8670    6.3869   -0.2224 C   0  0  1  0  0  0  0  0  0  0  0  0
    1.0674    7.0280    0.9184 C   0  0  0  0  0  0  0  0  0  0  0  0
    3.0056    5.6557    0.3364 N   0  0  0  0  0  0  0  0  0  0  0  0
    4.2605    6.3158    0.5135 C   0  0  0  0  0  0  0  0  0  0  0  0
    4.5291    6.8356    1.6291 O   0  0  0  0  0  0  0  0  0  0  0  0
    5.2726    6.3518   -0.5989 C   0  0  1  0  0  0  0  0  0  0  0  0
    5.5670    7.7924   -1.0256 C   0  0  0  0  0  0  0  0  0  0  0  0
    6.5027    5.7091   -0.1351 N   0  0  0  0  0  0  0  0  0  0  0  0
    7.0480    4.5193   -0.7379 C   0  0  0  0  0  0  0  0  0  0  0  0
    6.6873    4.1796   -1.8978 O   0  0  0  0  0  0  0  0  0  0  0  0
    7.9516    3.5971    0.0479 C   0  0  1  0  0  0  0  0  0  0  0  0
    8.9300    4.3586    0.9488 C   0  0  0  0  0  0  0  0  0  0  0  0
    7.1227    2.6894    0.8467 N   0  0  0  0  0  0  0  0  0  0  0  0
    7.2975    1.2657    0.8259 C   0  0  0  0  0  0  0  0  0  0  0  0
    6.3079    0.5236    0.5825 O   0  0  0  0  0  0  0  0  0  0  0  0
    8.6336    0.6473    1.1530 C   0  0  1  0  0  0  0  0  0  0  0  0
    8.4784   -0.3157    2.3399 C   0  0  0  0  0  0  0  0  0  0  0  0
    9.1729   -0.0579   -0.0122 N   0  0  0  0  0  0  0  0  0  0  0  0
   10.4101   -0.7702    0.0812 C   0  0  0  0  0  0  0  0  0  0  0  0
   11.3866   -0.2493    0.6823 O   0  0  0  0  0  0  0  0  0  0  0  0
   10.5075   -2.1659   -0.4601 C   0  0  1  0  0  0  0  0  0  0  0  0
   11.6797   -2.2798   -1.4420 C   0  0  0  0  0  0  0  0  0  0  0  0
   10.7058   -3.1005    0.6508 N   0  0  0  0  0  0  0  0  0  0  0  0
    9.9083   -4.2679    0.9324 C   0  0  0  0  0  0  0  0  0  0  0  0
   10.3389   -5.0816    1.7984 O   0  0  0  0  0  0  0  0  0  0  0  0
    8.6220   -4.5939    0.1926 C   0  0  1  0  0  0  0  0  0  0  0  0
    8.9524   -5.2227   -1.1628 C   0  0  0  0  0  0  0  0  0  0  0  0
    7.8156   -5.5405    0.9714 N   0  0  0  0  0  0  0  0  0  0  0  0
    6.5847   -5.1948    1.6282 C   0  0  0  0  0  0  0  0  0  0  0  0
    6.4414   -5.4857    2.8474 O   0  0  0  0  0  0  0  0  0  0  0  0
   -0.9103    3.3268    0.1063 C   0  0  0  0  0  0  0  0  0  0  0  0
   -0.3734    3.0426    1.2124 O   0  0  0  0  0  0  0  0  0  0  0  0
   -2.2329    3.8827    0.1040 N   0  0  0  0  0  0  0  0  0  0  0  0
   -3.2405    3.6509   -0.9340 C   0  0  2  0  0  0  0  0  0  0  0  0
   -3.3376    4.8843   -1.8358 C   0  0  0  0  0  0  0  0  0  0  0  0
   -4.5525    3.3038   -0.2673 C   0  0  0  0  0  0  0  0  0  0  0  0
   -4.6024    2.2873    0.4719 O   0  0  0  0  0  0  0  0  0  0  0  0
   -5.7388    4.0861   -0.4770 N   0  0  0  0  0  0  0  0  0  0  0  0
   -6.4409    4.8179    0.5838 C   0  0  2  0  0  0  0  0  0  0  0  0
   -5.4830    5.7494    1.3350 C   0  0  0  0  0  0  0  0  0  0  0  0
   -7.1321    3.8826    1.5512 C   0  0  0  0  0  0  0  0  0  0  0  0
   -6.4341    3.1427    2.2965 O   0  0  0  0  0  0  0  0  0  0  0  0
   -8.5632    3.8522    1.7138 N   0  0  0  0  0  0  0  0  0  0  0  0
   -9.5373    4.4941    0.8238 C   0  0  2  0  0  0  0  0  0  0  0  0
   -9.7636    5.9452    1.2858 C   0  0  0  0  0  0  0  0  0  0  0  0
  -10.8312    3.6999    0.8196 C   0  0  0  0  0  0  0  0  0  0  0  0
  -11.9037    4.2486    1.1970 O   0  0  0  0  0  0  0  0  0  0  0  0
  -10.8792    2.3202    0.4202 N   0  0  0  0  0  0  0  0  0  0  0  0
   -9.7955    1.5829   -0.2341 C   0  0  2  0  0  0  0  0  0  0  0  0
  -10.2108    1.2636   -1.6736 C   0  0  0  0  0  0  0  0  0  0  0  0
   -9.4845    0.3500    0.5820 C   0  0  0  0  0  0  0  0  0  0  0  0
   -9.0750    0.4864    1.7661 O   0  0  0  0  0  0  0  0  0  0  0  0
   -9.6962   -0.9686    0.0720 N   0  0  0  0  0  0  0  0  0  0  0  0
   -8.6935   -1.6286   -0.7641 C   0  0  2  0  0  0  0  0  0  0  0  0
   -9.3787   -2.4188   -1.8804 C   0  0  0  0  0  0  0  0  0  0  0  0
   -7.8235   -2.5381    0.0656 C   0  0  0  0  0  0  0  0  0  0  0  0
   -6.5790   -2.3244    0.1144 O   0  0  0  0  0  0  0  0  0  0  0  0
   -8.3931   -3.6523    0.7734 N   0  0  0  0  0  0  0  0  0  0  0  0
   -7.6931   -4.9419    0.8425 C   0  0  2  0  0  0  0  0  0  0  0  0
   -8.6455   -6.0440    1.3089 C   0  0  0  0  0  0  0  0  0  0  0  0
   -6.5097   -4.8512    1.7821 C   0  0  0  0  0  0  0  0  0  0  0  0
   -6.7216   -4.5509    2.9919 O   0  0  0  0  0  0  0  0  0  0  0  0
   -5.1562   -5.1126    1.3639 N   0  0  0  0  0  0  0  0  0  0  0  0
   -4.7515   -5.3751   -0.0247 C   0  0  2  0  0  0  0  0  0  0  0  0
   -5.1338   -6.7778   -0.4152 C   0  0  0  0  0  0  0  0  0  0  0  0
   -4.7418   -7.8927    0.3904 N   0  0  0  0  0  0  0  0  0  0  0  0
   -5.7848   -6.9752   -1.4755 O   0  0  0  0  0  0  0  0  0  0  0  0
   -3.2360   -5.1723   -0.1969 C   0  0  0  0  0  0  0  0  0  0  0  0
   -2.8089   -5.0635   -1.9715 S   0  0  0  0  0  0  0  0  0  0  0  0
   -0.9919   -4.9816   -1.7685 C   0  0  0  0  0  0  0  0  0  0  0  0
    5.3298   -7.5062    0.1703 H   0  0  0  0  0  0  0  0  0  0  0  0
    3.6503   -6.8843   -0.1506 H   0  0  0  0  0  0  0  0  0  0  0  0
    4.4589   -7.9581   -1.3497 H   0  0  0  0  0  0  0  0  0  0  0  0
    5.9597   -3.9523   -1.1084 H   0  0  0  0  0  0  0  0  0  0  0  0
    4.5049   -5.1737    1.2058 H   0  0  0  0  0  0  0  0  0  0  0  0
    4.9591   -3.0661    2.3773 H   0  0  0  0  0  0  0  0  0  0  0  0
    6.1067   -2.5611    1.0929 H   0  0  0  0  0  0  0  0  0  0  0  0
    2.5903   -4.0512    1.6080 H   0  0  0  0  0  0  0  0  0  0  0  0
    2.3731   -2.4087    2.2806 H   0  0  0  0  0  0  0  0  0  0  0  0
    1.1581   -4.8942   -0.1306 H   0  0  0  0  0  0  0  0  0  0  0  0
   -1.9836   -2.4123   -1.6918 H   0  0  0  0  0  0  0  0  0  0  0  0
    0.8749   -0.7697    1.0652 H   0  0  0  0  0  0  0  0  0  0  0  0
   -2.4726   -0.3185   -0.3216 H   0  0  0  0  0  0  0  0  0  0  0  0
   -1.1309    0.5088    0.4906 H   0  0  0  0  0  0  0  0  0  0  0  0
    0.8572    1.3175   -0.4902 H   0  0  0  0  0  0  0  0  0  0  0  0
    1.1185    1.7294   -2.2022 H   0  0  0  0  0  0  0  0  0  0  0  0
   -0.6707    3.5121   -2.0448 H   0  0  0  0  0  0  0  0  0  0  0  0
    2.0245    3.6344   -0.8499 H   0  0  0  0  0  0  0  0  0  0  0  0
    2.2381    7.1994   -0.8860 H   0  0  0  0  0  0  0  0  0  0  0  0
    0.2176    7.6235    0.5178 H   0  0  0  0  0  0  0  0  0  0  0  0
    0.6711    6.2442    1.6018 H   0  0  0  0  0  0  0  0  0  0  0  0
    1.7245    7.7101    1.5037 H   0  0  0  0  0  0  0  0  0  0  0  0
    2.7987    4.8592    0.9842 H   0  0  0  0  0  0  0  0  0  0  0  0
    4.8570    5.8126   -1.4747 H   0  0  0  0  0  0  0  0  0  0  0  0
    6.3417    7.7957   -1.8164 H   0  0  0  0  0  0  0  0  0  0  0  0
    5.9419    8.3879   -0.1651 H   0  0  0  0  0  0  0  0  0  0  0  0
    4.6544    8.2720   -1.4265 H   0  0  0  0  0  0  0  0  0  0  0  0
    6.9665    6.1132    0.7104 H   0  0  0  0  0  0  0  0  0  0  0  0
    8.5536    3.0054   -0.6797 H   0  0  0  0  0  0  0  0  0  0  0  0
    8.4158    4.7394    1.8604 H   0  0  0  0  0  0  0  0  0  0  0  0
    9.3777    5.2095    0.3940 H   0  0  0  0  0  0  0  0  0  0  0  0
    9.7589    3.6907    1.2688 H   0  0  0  0  0  0  0  0  0  0  0  0
    6.2381    3.0593    1.2635 H   0  0  0  0  0  0  0  0  0  0  0  0
    9.3453    1.4449    1.4534 H   0  0  0  0  0  0  0  0  0  0  0  0
    7.9606    0.1905    3.1844 H   0  0  0  0  0  0  0  0  0  0  0  0
    7.8961   -1.2117    2.0390 H   0  0  0  0  0  0  0  0  0  0  0  0
    9.4777   -0.6459    2.6973 H   0  0  0  0  0  0  0  0  0  0  0  0
    8.9277    0.2926   -0.9732 H   0  0  0  0  0  0  0  0  0  0  0  0
    9.5808   -2.3874   -1.0186 H   0  0  0  0  0  0  0  0  0  0  0  0
   12.6470   -2.1075   -0.9256 H   0  0  0  0  0  0  0  0  0  0  0  0
   11.5760   -1.5328   -2.2620 H   0  0  0  0  0  0  0  0  0  0  0  0
   11.6938   -3.2969   -1.8870 H   0  0  0  0  0  0  0  0  0  0  0  0
   11.5478   -2.9529    1.2533 H   0  0  0  0  0  0  0  0  0  0  0  0
    8.0532   -3.6533    0.0420 H   0  0  0  0  0  0  0  0  0  0  0  0
    9.4548   -4.4984   -1.8351 H   0  0  0  0  0  0  0  0  0  0  0  0
    8.0251   -5.5646   -1.6637 H   0  0  0  0  0  0  0  0  0  0  0  0
    9.6186   -6.1028   -1.0358 H   0  0  0  0  0  0  0  0  0  0  0  0
    8.2490   -6.4532    1.2314 H   0  0  0  0  0  0  0  0  0  0  0  0
   -2.5218    4.4274    0.9556 H   0  0  0  0  0  0  0  0  0  0  0  0
   -2.9439    2.7819   -1.5630 H   0  0  0  0  0  0  0  0  0  0  0  0
   -4.0599    4.7100   -2.6587 H   0  0  0  0  0  0  0  0  0  0  0  0
   -2.3570    5.0993   -2.2968 H   0  0  0  0  0  0  0  0  0  0  0  0
   -3.6448    5.7741   -1.2473 H   0  0  0  0  0  0  0  0  0  0  0  0
   -6.0311    4.2763   -1.4639 H   0  0  0  0  0  0  0  0  0  0  0  0
   -7.1806    5.4765    0.0885 H   0  0  0  0  0  0  0  0  0  0  0  0
   -4.7024    5.1727    1.8770 H   0  0  0  0  0  0  0  0  0  0  0  0
   -6.0535    6.3538    2.0758 H   0  0  0  0  0  0  0  0  0  0  0  0
   -4.9914    6.4434    0.6248 H   0  0  0  0  0  0  0  0  0  0  0  0
   -8.9339    3.3123    2.5326 H   0  0  0  0  0  0  0  0  0  0  0  0
   -9.1610    4.5074   -0.2198 H   0  0  0  0  0  0  0  0  0  0  0  0
   -8.8171    6.5181    1.2811 H   0  0  0  0  0  0  0  0  0  0  0  0
  -10.4842    6.4565    0.6124 H   0  0  0  0  0  0  0  0  0  0  0  0
  -10.1650    5.9547    2.3203 H   0  0  0  0  0  0  0  0  0  0  0  0
  -11.7902    1.8184    0.5464 H   0  0  0  0  0  0  0  0  0  0  0  0
   -8.8691    2.1906   -0.2895 H   0  0  0  0  0  0  0  0  0  0  0  0
  -11.0906    0.5850   -1.6895 H   0  0  0  0  0  0  0  0  0  0  0  0
   -9.3714    0.8031   -2.2356 H   0  0  0  0  0  0  0  0  0  0  0  0
  -10.4870    2.2030   -2.1994 H   0  0  0  0  0  0  0  0  0  0  0  0
  -10.4256   -1.5520    0.5371 H   0  0  0  0  0  0  0  0  0  0  0  0
   -8.0436   -0.8636   -1.2402 H   0  0  0  0  0  0  0  0  0  0  0  0
   -9.9774   -1.7343   -2.5129 H   0  0  0  0  0  0  0  0  0  0  0  0
  -10.0553   -3.1926   -1.4554 H   0  0  0  0  0  0  0  0  0  0  0  0
   -8.6183   -2.9154   -2.5210 H   0  0  0  0  0  0  0  0  0  0  0  0
   -9.3978   -3.6025    1.0519 H   0  0  0  0  0  0  0  0  0  0  0  0
   -7.3756   -5.2142   -0.1792 H   0  0  0  0  0  0  0  0  0  0  0  0
   -9.5217   -6.1088    0.6274 H   0  0  0  0  0  0  0  0  0  0  0  0
   -8.1231   -7.0258    1.2971 H   0  0  0  0  0  0  0  0  0  0  0  0
   -9.0153   -5.8454    2.3416 H   0  0  0  0  0  0  0  0  0  0  0  0
   -4.4157   -5.0293    2.0928 H   0  0  0  0  0  0  0  0  0  0  0  0
   -5.2552   -4.6406   -0.6926 H   0  0  0  0  0  0  0  0  0  0  0  0
   -4.2171   -7.7544    1.2863 H   0  0  0  0  0  0  0  0  0  0  0  0
   -4.9760   -8.8643    0.0872 H   0  0  0  0  0  0  0  0  0  0  0  0
   -2.9439   -4.2191    0.2945 H   0  0  0  0  0  0  0  0  0  0  0  0
   -2.6673   -5.9973    0.2786 H   0  0  0  0  0  0  0  0  0  0  0  0
   -0.6497   -5.9366   -1.3158 H   0  0  0  0  0  0  0  0  0  0  0  0
   -0.5419   -4.9118   -2.7790 H   0  0  0  0  0  0  0  0  0  0  0  0
  1  2  1  0
  2  3  2  0
  2  4  1  0
  4  5  1  0
  5  6  1  0
  6  7  1  0
  7  8  1  0
  8  9  1  0
  9 10  2  0
 10 11  1  0
 11 12  2  0
 12 13  1  0
 13 14  2  0
 13 15  1  0
 15 16  1  0
 16 17  1  0
 17 18  1  0
 18 19  1  0
 19 20  1  0
 20 21  2  0
 20 22  1  0
 22 23  1  0
 22 24  1  0
 24 25  1  0
 25 26  2  0
 25 27  1  0
 27 28  1  0
 27 29  1  0
 29 30  1  0
 30 31  2  0
 30 32  1  0
 32 33  1  0
 32 34  1  0
 34 35  1  0
 35 36  2  0
 35 37  1  0
 37 38  1  0
 37 39  1  0
 39 40  1  0
 40 41  2  0
 40 42  1  0
 42 43  1  0
 42 44  1  0
 44 45  1  0
 45 46  2  0
 45 47  1  0
 47 48  1  0
 47 49  1  0
 49 50  1  0
 50 51  2  0
 18 52  1  0
 52 53  2  0
 52 54  1  0
 54 55  1  0
 55 56  1  0
 55 57  1  0
 57 58  2  0
 57 59  1  0
 59 60  1  0
 60 61  1  0
 60 62  1  0
 62 63  2  0
 62 64  1  0
 64 65  1  0
 65 66  1  0
 65 67  1  0
 67 68  2  0
 67 69  1  0
 69 70  1  0
 70 71  1  0
 70 72  1  0
 72 73  2  0
 72 74  1  0
 74 75  1  0
 75 76  1  0
 75 77  1  0
 77 78  2  0
 77 79  1  0
 79 80  1  0
 80 81  1  0
 80 82  1  0
 82 83  2  0
 82 84  1  0
 84 85  1  0
 85 86  1  0
 86 87  1  0
 86 88  2  0
 85 89  1  0
 89 90  1  0
 90 91  1  0
 50  5  1  0
 14  9  1  0
 91 11  1  0
  1 92  1  0
  1 93  1  0
  1 94  1  0
  4 95  1  0
  5 96  1  1
  6 97  1  0
  6 98  1  0
  8 99  1  0
  8100  1  0
 10101  1  0
 12102  1  0
 14103  1  0
 15104  1  0
 15105  1  0
 17106  1  0
 17107  1  0
 18108  1  6
 19109  1  0
 22110  1  6
 23111  1  0
 23112  1  0
 23113  1  0
 24114  1  0
 27115  1  6
 28116  1  0
 28117  1  0
 28118  1  0
 29119  1  0
 32120  1  6
 33121  1  0
 33122  1  0
 33123  1  0
 34124  1  0
 37125  1  1
 38126  1  0
 38127  1  0
 38128  1  0
 39129  1  0
 42130  1  6
 43131  1  0
 43132  1  0
 43133  1  0
 44134  1  0
 47135  1  6
 48136  1  0
 48137  1  0
 48138  1  0
 49139  1  0
 54140  1  0
 55141  1  6
 56142  1  0
 56143  1  0
 56144  1  0
 59145  1  0
 60146  1  6
 61147  1  0
 61148  1  0
 61149  1  0
 64150  1  0
 65151  1  6
 66152  1  0
 66153  1  0
 66154  1  0
 69155  1  0
 70156  1  6
 71157  1  0
 71158  1  0
 71159  1  0
 74160  1  0
 75161  1  6
 76162  1  0
 76163  1  0
 76164  1  0
 79165  1  0
 80166  1  6
 81167  1  0
 81168  1  0
 81169  1  0
 84170  1  0
 85171  1  6
 87172  1  0
 87173  1  0
 89174  1  0
 89175  1  0
 91176  1  0
 91177  1  0
M  END
