
     RDKit          3D

177179  0  0  0  0  0  0  0  0999 V2000
    6.2548    7.1552   -0.5437 C   0  0  0  0  0  0  0  0  0  0  0  0
    5.8994    6.2615   -1.6880 C   0  0  0  0  0  0  0  0  0  0  0  0
    5.5285    6.7901   -2.7734 O   0  0  0  0  0  0  0  0  0  0  0  0
    5.9615    4.8303   -1.5978 N   0  0  0  0  0  0  0  0  0  0  0  0
    6.1939    4.0794   -0.3568 C   0  0  1  0  0  0  0  0  0  0  0  0
    4.9132    4.0729    0.5029 C   0  0  0  0  0  0  0  0  0  0  0  0
    3.4587    3.4905   -0.4470 S   0  0  0  0  0  0  0  0  0  0  0  0
    2.2219    4.0218    0.7883 C   0  0  0  0  0  0  0  0  0  0  0  0
    0.8659    3.5425    0.3503 C   0  0  0  0  0  0  0  0  0  0  0  0
    0.0165    4.3802   -0.3887 C   0  0  0  0  0  0  0  0  0  0  0  0
   -1.2061    3.8986   -0.8937 C   0  0  0  0  0  0  0  0  0  0  0  0
   -1.5714    2.5652   -0.6363 C   0  0  0  0  0  0  0  0  0  0  0  0
   -0.7297    1.7227    0.1086 C   0  0  0  0  0  0  0  0  0  0  0  0
    0.4858    2.2148    0.5905 C   0  0  0  0  0  0  0  0  0  0  0  0
   -1.0845    0.2762    0.3187 C   0  0  0  0  0  0  0  0  0  0  0  0
   -0.2028   -0.7428   -0.9157 S   0  0  0  0  0  0  0  0  0  0  0  0
    0.7006   -1.8180    0.2584 C   0  0  0  0  0  0  0  0  0  0  0  0
   -0.2263   -2.9045    0.8527 C   0  0  2  0  0  0  0  0  0  0  0  0
    0.4129   -3.5992    1.9790 N   0  0  0  0  0  0  0  0  0  0  0  0
    1.3320   -4.6977    1.8448 C   0  0  0  0  0  0  0  0  0  0  0  0
    0.9871   -5.8424    2.2472 O   0  0  0  0  0  0  0  0  0  0  0  0
    2.7516   -4.4578    1.4045 C   0  0  1  0  0  0  0  0  0  0  0  0
    3.5071   -3.7162    2.5036 C   0  0  0  0  0  0  0  0  0  0  0  0
    3.4355   -5.7223    1.1035 N   0  0  0  0  0  0  0  0  0  0  0  0
    4.0575   -5.9159   -0.1720 C   0  0  0  0  0  0  0  0  0  0  0  0
    3.3448   -5.9604   -1.2087 O   0  0  0  0  0  0  0  0  0  0  0  0
    5.5581   -5.9406   -0.2637 C   0  0  1  0  0  0  0  0  0  0  0  0
    6.1139   -7.2926    0.1974 C   0  0  0  0  0  0  0  0  0  0  0  0
    6.0003   -5.6732   -1.6393 N   0  0  0  0  0  0  0  0  0  0  0  0
    6.6576   -4.4756   -2.1020 C   0  0  0  0  0  0  0  0  0  0  0  0
    7.0948   -4.4522   -3.2854 O   0  0  0  0  0  0  0  0  0  0  0  0
    6.8594   -3.2402   -1.2474 C   0  0  1  0  0  0  0  0  0  0  0  0
    5.5168   -2.6677   -0.7455 C   0  0  0  0  0  0  0  0  0  0  0  0
    7.7902   -3.5285   -0.1427 N   0  0  0  0  0  0  0  0  0  0  0  0
    8.5649   -2.5328    0.5562 C   0  0  0  0  0  0  0  0  0  0  0  0
    9.5806   -2.9107    1.2062 O   0  0  0  0  0  0  0  0  0  0  0  0
    8.2224   -1.0652    0.5410 C   0  0  1  0  0  0  0  0  0  0  0  0
    7.8320   -0.6117    1.9600 C   0  0  0  0  0  0  0  0  0  0  0  0
    9.3533   -0.3152   -0.0292 N   0  0  0  0  0  0  0  0  0  0  0  0
   10.2864    0.4662    0.7269 C   0  0  0  0  0  0  0  0  0  0  0  0
   11.4501    0.0185    0.9117 O   0  0  0  0  0  0  0  0  0  0  0  0
    9.9262    1.8547    1.1853 C   0  0  1  0  0  0  0  0  0  0  0  0
   10.3847    2.0986    2.6273 C   0  0  0  0  0  0  0  0  0  0  0  0
   10.5396    2.8379    0.2943 N   0  0  0  0  0  0  0  0  0  0  0  0
    9.7591    3.8346   -0.3691 C   0  0  0  0  0  0  0  0  0  0  0  0
    9.8054    5.0275    0.0474 O   0  0  0  0  0  0  0  0  0  0  0  0
    8.9576    3.5059   -1.6011 C   0  0  1  0  0  0  0  0  0  0  0  0
    9.8935    3.0525   -2.7316 C   0  0  0  0  0  0  0  0  0  0  0  0
    7.9609    2.4623   -1.3262 N   0  0  0  0  0  0  0  0  0  0  0  0
    6.6878    2.6811   -0.6901 C   0  0  0  0  0  0  0  0  0  0  0  0
    5.9594    1.6825   -0.4593 O   0  0  0  0  0  0  0  0  0  0  0  0
   -0.7491   -3.8889   -0.1643 C   0  0  0  0  0  0  0  0  0  0  0  0
   -0.3849   -3.8514   -1.3672 O   0  0  0  0  0  0  0  0  0  0  0  0
   -1.7596   -4.8226    0.2404 N   0  0  0  0  0  0  0  0  0  0  0  0
   -3.1064   -4.8007   -0.3425 C   0  0  2  0  0  0  0  0  0  0  0  0
   -3.7191   -3.3992   -0.2081 C   0  0  0  0  0  0  0  0  0  0  0  0
   -3.9906   -5.8097    0.3499 C   0  0  0  0  0  0  0  0  0  0  0  0
   -4.0295   -5.8342    1.6105 O   0  0  0  0  0  0  0  0  0  0  0  0
   -4.7678   -6.7681   -0.3830 N   0  0  0  0  0  0  0  0  0  0  0  0
   -5.8867   -6.4384   -1.2832 C   0  0  2  0  0  0  0  0  0  0  0  0
   -5.3944   -5.8574   -2.6104 C   0  0  0  0  0  0  0  0  0  0  0  0
   -6.9181   -5.5343   -0.6453 C   0  0  0  0  0  0  0  0  0  0  0  0
   -6.6351   -4.8443    0.3713 O   0  0  0  0  0  0  0  0  0  0  0  0
   -8.2526   -5.5078   -1.1767 N   0  0  0  0  0  0  0  0  0  0  0  0
   -9.0292   -4.2978   -1.4798 C   0  0  2  0  0  0  0  0  0  0  0  0
   -9.0220   -4.0458   -2.9885 C   0  0  0  0  0  0  0  0  0  0  0  0
   -8.5607   -3.0730   -0.7291 C   0  0  0  0  0  0  0  0  0  0  0  0
   -7.5546   -2.4256   -1.1278 O   0  0  0  0  0  0  0  0  0  0  0  0
   -9.3138   -2.6023    0.3978 N   0  0  0  0  0  0  0  0  0  0  0  0
  -10.0953   -1.3572    0.3591 C   0  0  2  0  0  0  0  0  0  0  0  0
  -10.9847   -1.3190   -0.8926 C   0  0  0  0  0  0  0  0  0  0  0  0
   -9.2160   -0.1285    0.4827 C   0  0  0  0  0  0  0  0  0  0  0  0
   -7.9825   -0.2559    0.7062 O   0  0  0  0  0  0  0  0  0  0  0  0
   -9.8037    1.1775    0.4724 N   0  0  0  0  0  0  0  0  0  0  0  0
   -9.3733    2.2394    1.3900 C   0  0  2  0  0  0  0  0  0  0  0  0
   -9.7110    1.8488    2.8328 C   0  0  0  0  0  0  0  0  0  0  0  0
  -10.0696    3.5444    1.0575 C   0  0  0  0  0  0  0  0  0  0  0  0
  -11.3289    3.5651    1.0358 O   0  0  0  0  0  0  0  0  0  0  0  0
   -9.3705    4.7773    0.7943 N   0  0  0  0  0  0  0  0  0  0  0  0
   -7.9830    4.9512    0.3324 C   0  0  2  0  0  0  0  0  0  0  0  0
   -7.6695    4.0689   -0.8850 C   0  0  0  0  0  0  0  0  0  0  0  0
   -6.9771    4.7751    1.4493 C   0  0  0  0  0  0  0  0  0  0  0  0
   -7.3458    4.3225    2.5633 O   0  0  0  0  0  0  0  0  0  0  0  0
   -5.5796    5.0662    1.2570 N   0  0  0  0  0  0  0  0  0  0  0  0
   -5.0929    6.2506    0.5389 C   0  0  1  0  0  0  0  0  0  0  0  0
   -5.0256    7.4222    1.4875 C   0  0  0  0  0  0  0  0  0  0  0  0
   -5.6185    8.6724    1.1387 N   0  0  0  0  0  0  0  0  0  0  0  0
   -4.3873    7.3189    2.5596 O   0  0  0  0  0  0  0  0  0  0  0  0
   -3.7001    5.9745   -0.0492 C   0  0  0  0  0  0  0  0  0  0  0  0
   -3.8116    4.7276   -1.3760 S   0  0  0  0  0  0  0  0  0  0  0  0
   -2.0342    4.7592   -1.8165 C   0  0  0  0  0  0  0  0  0  0  0  0
    5.4014    7.2476    0.1640 H   0  0  0  0  0  0  0  0  0  0  0  0
    7.1571    6.7894   -0.0151 H   0  0  0  0  0  0  0  0  0  0  0  0
    6.4888    8.1766   -0.9292 H   0  0  0  0  0  0  0  0  0  0  0  0
    5.8007    4.2958   -2.4807 H   0  0  0  0  0  0  0  0  0  0  0  0
    6.9974    4.5612    0.2352 H   0  0  0  0  0  0  0  0  0  0  0  0
    4.7193    5.1077    0.8629 H   0  0  0  0  0  0  0  0  0  0  0  0
    5.0579    3.4273    1.4008 H   0  0  0  0  0  0  0  0  0  0  0  0
    2.4664    3.5980    1.7872 H   0  0  0  0  0  0  0  0  0  0  0  0
    2.2368    5.1274    0.8745 H   0  0  0  0  0  0  0  0  0  0  0  0
    0.3236    5.4011   -0.6001 H   0  0  0  0  0  0  0  0  0  0  0  0
   -2.4966    2.1726   -1.0440 H   0  0  0  0  0  0  0  0  0  0  0  0
    1.1446    1.5584    1.1467 H   0  0  0  0  0  0  0  0  0  0  0  0
   -0.8326   -0.0114    1.3609 H   0  0  0  0  0  0  0  0  0  0  0  0
   -2.1767    0.1127    0.1937 H   0  0  0  0  0  0  0  0  0  0  0  0
    1.1470   -1.2073    1.0675 H   0  0  0  0  0  0  0  0  0  0  0  0
    1.5278   -2.2731   -0.3116 H   0  0  0  0  0  0  0  0  0  0  0  0
   -1.1165   -2.3793    1.2567 H   0  0  0  0  0  0  0  0  0  0  0  0
   -0.0582   -3.5144    2.9058 H   0  0  0  0  0  0  0  0  0  0  0  0
    2.7529   -3.8246    0.5035 H   0  0  0  0  0  0  0  0  0  0  0  0
    3.4855   -4.2888    3.4608 H   0  0  0  0  0  0  0  0  0  0  0  0
    4.5721   -3.5834    2.2146 H   0  0  0  0  0  0  0  0  0  0  0  0
    3.0643   -2.7078    2.6733 H   0  0  0  0  0  0  0  0  0  0  0  0
    3.7410   -6.3228    1.9023 H   0  0  0  0  0  0  0  0  0  0  0  0
    5.9333   -5.1713    0.4383 H   0  0  0  0  0  0  0  0  0  0  0  0
    5.7904   -8.1115   -0.4853 H   0  0  0  0  0  0  0  0  0  0  0  0
    7.2285   -7.2554    0.2027 H   0  0  0  0  0  0  0  0  0  0  0  0
    5.7732   -7.5317    1.2297 H   0  0  0  0  0  0  0  0  0  0  0  0
    5.8047   -6.4116   -2.3561 H   0  0  0  0  0  0  0  0  0  0  0  0
    7.3376   -2.4714   -1.8922 H   0  0  0  0  0  0  0  0  0  0  0  0
    5.3660   -1.6469   -1.1588 H   0  0  0  0  0  0  0  0  0  0  0  0
    5.5026   -2.5918    0.3596 H   0  0  0  0  0  0  0  0  0  0  0  0
    4.6502   -3.2791   -1.0704 H   0  0  0  0  0  0  0  0  0  0  0  0
    8.0705   -4.5209    0.0297 H   0  0  0  0  0  0  0  0  0  0  0  0
    7.3442   -0.8694   -0.1019 H   0  0  0  0  0  0  0  0  0  0  0  0
    7.0313   -1.2708    2.3610 H   0  0  0  0  0  0  0  0  0  0  0  0
    8.6999   -0.6606    2.6497 H   0  0  0  0  0  0  0  0  0  0  0  0
    7.4212    0.4184    1.9428 H   0  0  0  0  0  0  0  0  0  0  0  0
    9.6393   -0.5735   -0.9986 H   0  0  0  0  0  0  0  0  0  0  0  0
    8.8248    1.9734    1.1573 H   0  0  0  0  0  0  0  0  0  0  0  0
   10.1161    3.1335    2.9372 H   0  0  0  0  0  0  0  0  0  0  0  0
   11.4837    1.9781    2.7195 H   0  0  0  0  0  0  0  0  0  0  0  0
    9.8783    1.3876    3.3175 H   0  0  0  0  0  0  0  0  0  0  0  0
   11.5772    2.9590    0.3159 H   0  0  0  0  0  0  0  0  0  0  0  0
    8.4458    4.4173   -1.9654 H   0  0  0  0  0  0  0  0  0  0  0  0
   10.6465    3.8456   -2.9524 H   0  0  0  0  0  0  0  0  0  0  0  0
   10.4304    2.1182   -2.4532 H   0  0  0  0  0  0  0  0  0  0  0  0
    9.2945    2.8655   -3.6539 H   0  0  0  0  0  0  0  0  0  0  0  0
    8.1800    1.4785   -1.6029 H   0  0  0  0  0  0  0  0  0  0  0  0
   -1.5359   -5.4602    1.0388 H   0  0  0  0  0  0  0  0  0  0  0  0
   -3.0251   -5.0509   -1.4237 H   0  0  0  0  0  0  0  0  0  0  0  0
   -4.7158   -3.3563   -0.6870 H   0  0  0  0  0  0  0  0  0  0  0  0
   -3.0765   -2.6480   -0.7102 H   0  0  0  0  0  0  0  0  0  0  0  0
   -3.8194   -3.1186    0.8615 H   0  0  0  0  0  0  0  0  0  0  0  0
   -4.7008   -7.7581   -0.0626 H   0  0  0  0  0  0  0  0  0  0  0  0
   -6.3978   -7.3979   -1.5298 H   0  0  0  0  0  0  0  0  0  0  0  0
   -6.2155   -5.8947   -3.3592 H   0  0  0  0  0  0  0  0  0  0  0  0
   -4.5404   -6.4540   -2.9967 H   0  0  0  0  0  0  0  0  0  0  0  0
   -5.0842   -4.7965   -2.5028 H   0  0  0  0  0  0  0  0  0  0  0  0
   -8.6206   -6.4065   -1.5748 H   0  0  0  0  0  0  0  0  0  0  0  0
  -10.0862   -4.4930   -1.1782 H   0  0  0  0  0  0  0  0  0  0  0  0
   -7.9810   -3.9751   -3.3709 H   0  0  0  0  0  0  0  0  0  0  0  0
   -9.5513   -3.0998   -3.2206 H   0  0  0  0  0  0  0  0  0  0  0  0
   -9.5417   -4.8694   -3.5178 H   0  0  0  0  0  0  0  0  0  0  0  0
   -9.4926   -3.2719    1.1817 H   0  0  0  0  0  0  0  0  0  0  0  0
  -10.7761   -1.3525    1.2411 H   0  0  0  0  0  0  0  0  0  0  0  0
  -10.3712   -1.1866   -1.8089 H   0  0  0  0  0  0  0  0  0  0  0  0
  -11.7295   -0.4979   -0.8256 H   0  0  0  0  0  0  0  0  0  0  0  0
  -11.5509   -2.2745   -0.9717 H   0  0  0  0  0  0  0  0  0  0  0  0
  -10.6047    1.3554   -0.1779 H   0  0  0  0  0  0  0  0  0  0  0  0
   -8.2788    2.3438    1.3208 H   0  0  0  0  0  0  0  0  0  0  0  0
   -9.4102    2.6616    3.5331 H   0  0  0  0  0  0  0  0  0  0  0  0
   -9.1728    0.9245    3.1233 H   0  0  0  0  0  0  0  0  0  0  0  0
  -10.8027    1.6647    2.9446 H   0  0  0  0  0  0  0  0  0  0  0  0
   -9.9611    5.6456    0.7824 H   0  0  0  0  0  0  0  0  0  0  0  0
   -7.9015    6.0039   -0.0098 H   0  0  0  0  0  0  0  0  0  0  0  0
   -6.8058    4.4877   -1.4397 H   0  0  0  0  0  0  0  0  0  0  0  0
   -7.4065    3.0321   -0.5949 H   0  0  0  0  0  0  0  0  0  0  0  0
   -8.5370    4.0385   -1.5805 H   0  0  0  0  0  0  0  0  0  0  0  0
   -4.9146    4.6175    1.9278 H   0  0  0  0  0  0  0  0  0  0  0  0
   -5.7672    6.5032   -0.3010 H   0  0  0  0  0  0  0  0  0  0  0  0
   -5.5465    9.4820    1.8001 H   0  0  0  0  0  0  0  0  0  0  0  0
   -5.8849    8.8706    0.1444 H   0  0  0  0  0  0  0  0  0  0  0  0
   -3.0094    5.6172    0.7436 H   0  0  0  0  0  0  0  0  0  0  0  0
   -3.2878    6.9184   -0.4797 H   0  0  0  0  0  0  0  0  0  0  0  0
   -1.6722    5.8107   -1.8187 H   0  0  0  0  0  0  0  0  0  0  0  0
   -1.9259    4.3726   -2.8538 H   0  0  0  0  0  0  0  0  0  0  0  0
  1  2  1  0
  2  3  2  0
  2  4  1  0
  4  5  1  0
  5  6  1  0
  6  7  1  0
  7  8  1  0
  8  9  1  0
  9 10  2  0
 10 11  1  0
 11 12  2  0
 12 13  1  0
 13 14  2  0
 13 15  1  0
 15 16  1  0
 16 17  1  0
 17 18  1  0
 18 19  1  0
 19 20  1  0
 20 21  2  0
 20 22  1  0
 22 23  1  0
 22 24  1  0
 24 25  1  0
 25 26  2  0
 25 27  1  0
 27 28  1  0
 27 29  1  0
 29 30  1  0
 30 31  2  0
 30 32  1  0
 32 33  1  0
 32 34  1  0
 34 35  1  0
 35 36  2  0
 35 37  1  0
 37 38  1  0
 37 39  1  0
 39 40  1  0
 40 41  2  0
 40 42  1  0
 42 43  1  0
 42 44  1  0
 44 45  1  0
 45 46  2  0
 45 47  1  0
 47 48  1  0
 47 49  1  0
 49 50  1  0
 50 51  2  0
 18 52  1  0
 52 53  2  0
 52 54  1  0
 54 55  1  0
 55 56  1  0
 55 57  1  0
 57 58  2  0
 57 59  1  0
 59 60  1  0
 60 61  1  0
 60 62  1  0
 62 63  2  0
 62 64  1  0
 64 65  1  0
 65 66  1  0
 65 67  1  0
 67 68  2  0
 67 69  1  0
 69 70  1  0
 70 71  1  0
 70 72  1  0
 72 73  2  0
 72 74  1  0
 74 75  1  0
 75 76  1  0
 75 77  1  0
 77 78  2  0
 77 79  1  0
 79 80  1  0
 80 81  1  0
 80 82  1  0
 82 83  2  0
 82 84  1  0
 84 85  1  0
 85 86  1  0
 86 87  1  0
 86 88  2  0
 85 89  1  0
 89 90  1  0
 90 91  1  0
 50  5  1  0
 14  9  1  0
 91 11  1  0
  1 92  1  0
  1 93  1  0
  1 94  1  0
  4 95  1  0
  5 96  1  1
  6 97  1  0
  6 98  1  0
  8 99  1  0
  8100  1  0
 10101  1  0
 12102  1  0
 14103  1  0
 15104  1  0
 15105  1  0
 17106  1  0
 17107  1  0
 18108  1  1
 19109  1  0
 22110  1  6
 23111  1  0
 23112  1  0
 23113  1  0
 24114  1  0
 27115  1  1
 28116  1  0
 28117  1  0
 28118  1  0
 29119  1  0
 32120  1  6
 33121  1  0
 33122  1  0
 33123  1  0
 34124  1  0
 37125  1  6
 38126  1  0
 38127  1  0
 38128  1  0
 39129  1  0
 42130  1  1
 43131  1  0
 43132  1  0
 43133  1  0
 44134  1  0
 47135  1  6
 48136  1  0
 48137  1  0
 48138  1  0
 49139  1  0
 54140  1  0
 55141  1  6
 56142  1  0
 56143  1  0
 56144  1  0
 59145  1  0
 60146  1  6
 61147  1  0
 61148  1  0
 61149  1  0
 64150  1  0
 65151  1  1
 66152  1  0
 66153  1  0
 66154  1  0
 69155  1  0
 70156  1  1
 71157  1  0
 71158  1  0
 71159  1  0
 74160  1  0
 75161  1  1
 76162  1  0
 76163  1  0
 76164  1  0
 79165  1  0
 80166  1  6
 81167  1  0
 81168  1  0
 81169  1  0
 84170  1  0
 85171  1  6
 87172  1  0
 87173  1  0
 89174  1  0
 89175  1  0
 91176  1  0
 91177  1  0
M  END
