
     RDKit          3D

187189  0  0  0  0  0  0  0  0999 V2000
   -6.8774    8.2125    2.5842 C   0  0  0  0  0  0  0  0  0  0  0  0
   -6.2345    7.3267    1.5711 C   0  0  0  0  0  0  0  0  0  0  0  0
   -5.8861    7.8012    0.4533 O   0  0  0  0  0  0  0  0  0  0  0  0
   -5.9891    5.9490    1.8896 N   0  0  0  0  0  0  0  0  0  0  0  0
   -5.3931    4.9728    0.9704 C   0  0  2  0  0  0  0  0  0  0  0  0
   -3.9353    5.3404    0.6326 C   0  0  0  0  0  0  0  0  0  0  0  0
   -2.9132    5.5004    2.1487 S   0  0  0  0  0  0  0  0  0  0  0  0
   -2.5792    3.7176    2.4244 C   0  0  0  0  0  0  0  0  0  0  0  0
   -1.6944    3.1591    1.3435 C   0  0  0  0  0  0  0  0  0  0  0  0
   -0.3844    3.6335    1.1997 C   0  0  0  0  0  0  0  0  0  0  0  0
    0.4148    3.1907    0.1358 C   0  0  0  0  0  0  0  0  0  0  0  0
   -0.1128    2.2875   -0.7959 C   0  0  0  0  0  0  0  0  0  0  0  0
   -1.3947    1.7416   -0.6164 C   0  0  0  0  0  0  0  0  0  0  0  0
   -2.1832    2.1924    0.4536 C   0  0  0  0  0  0  0  0  0  0  0  0
   -1.9824    0.7511   -1.5943 C   0  0  0  0  0  0  0  0  0  0  0  0
   -0.7640   -0.3974   -2.3527 S   0  0  0  0  0  0  0  0  0  0  0  0
    0.0013   -1.0072   -0.8029 C   0  0  0  0  0  0  0  0  0  0  0  0
    0.4422   -2.4743   -0.9631 C   0  0  2  0  0  0  0  0  0  0  0  0
   -0.7035   -3.3293   -1.3044 N   0  0  0  0  0  0  0  0  0  0  0  0
   -1.8734   -3.4588   -0.4763 C   0  0  0  0  0  0  0  0  0  0  0  0
   -1.8252   -3.0945    0.7316 O   0  0  0  0  0  0  0  0  0  0  0  0
   -3.1698   -4.0535   -0.9852 C   0  0  1  0  0  0  0  0  0  0  0  0
   -3.2270   -4.1948   -2.5096 C   0  0  0  0  0  0  0  0  0  0  0  0
   -3.3928   -5.3630   -0.3650 N   0  0  0  0  0  0  0  0  0  0  0  0
   -4.6731   -5.8765    0.0446 C   0  0  0  0  0  0  0  0  0  0  0  0
   -4.7026   -6.8775    0.8121 O   0  0  0  0  0  0  0  0  0  0  0  0
   -5.9896   -5.3028   -0.4378 C   0  0  1  0  0  0  0  0  0  0  0  0
   -6.6866   -6.3149   -1.3643 C   0  0  0  0  0  0  0  0  0  0  0  0
   -6.8092   -4.9329    0.7218 N   0  0  0  0  0  0  0  0  0  0  0  0
   -8.1482   -5.3846    0.9406 C   0  0  0  0  0  0  0  0  0  0  0  0
   -8.3441   -6.4122    1.6473 O   0  0  0  0  0  0  0  0  0  0  0  0
   -9.3090   -4.5744    0.4327 C   0  0  1  0  0  0  0  0  0  0  0  0
  -10.3894   -5.4759   -0.1691 C   0  0  0  0  0  0  0  0  0  0  0  0
   -9.8768   -3.7905    1.5351 N   0  0  0  0  0  0  0  0  0  0  0  0
  -10.2911   -2.4158    1.4537 C   0  0  0  0  0  0  0  0  0  0  0  0
  -10.4304   -1.7704    2.5274 O   0  0  0  0  0  0  0  0  0  0  0  0
  -10.7194   -1.7585    0.1559 C   0  0  1  0  0  0  0  0  0  0  0  0
  -12.2498   -1.7685    0.0767 C   0  0  0  0  0  0  0  0  0  0  0  0
  -10.2191   -0.3783    0.0814 N   0  0  0  0  0  0  0  0  0  0  0  0
  -10.4011    0.4538   -1.0773 C   0  0  0  0  0  0  0  0  0  0  0  0
  -10.6771   -0.0763   -2.1874 O   0  0  0  0  0  0  0  0  0  0  0  0
  -10.1782    1.9509   -1.0026 C   0  0  1  0  0  0  0  0  0  0  0  0
  -11.1431    2.6966   -1.9351 C   0  0  0  0  0  0  0  0  0  0  0  0
  -10.3800    2.4309    0.3694 N   0  0  0  0  0  0  0  0  0  0  0  0
   -9.5427    3.3953    1.0363 C   0  0  0  0  0  0  0  0  0  0  0  0
  -10.0963    4.2661    1.7639 O   0  0  0  0  0  0  0  0  0  0  0  0
   -8.0301    3.3878    0.9638 C   0  0  1  0  0  0  0  0  0  0  0  0
   -7.4311    1.9735    0.9704 C   0  0  0  0  0  0  0  0  0  0  0  0
   -7.5566    4.1664   -0.1877 N   0  0  0  0  0  0  0  0  0  0  0  0
   -6.2710    4.8050   -0.2587 C   0  0  0  0  0  0  0  0  0  0  0  0
   -5.8869    5.2640   -1.3693 O   0  0  0  0  0  0  0  0  0  0  0  0
    1.1584   -3.0119    0.2584 C   0  0  0  0  0  0  0  0  0  0  0  0
    1.4225   -2.2552    1.2359 O   0  0  0  0  0  0  0  0  0  0  0  0
    1.4679   -4.4055    0.3613 N   0  0  0  0  0  0  0  0  0  0  0  0
    2.7082   -4.9849   -0.1798 C   0  0  2  0  0  0  0  0  0  0  0  0
    2.9224   -4.5966   -1.6447 C   0  0  0  0  0  0  0  0  0  0  0  0
    2.6508   -6.4917   -0.0703 C   0  0  0  0  0  0  0  0  0  0  0  0
    1.5841   -7.0807   -0.3950 O   0  0  0  0  0  0  0  0  0  0  0  0
    3.7587   -7.2789    0.4001 N   0  0  0  0  0  0  0  0  0  0  0  0
    5.1670   -6.8611    0.3298 C   0  0  2  0  0  0  0  0  0  0  0  0
    6.0665   -8.1028    0.3008 C   0  0  0  0  0  0  0  0  0  0  0  0
    5.5205   -5.9784    1.5075 C   0  0  0  0  0  0  0  0  0  0  0  0
    4.9120   -6.1356    2.6018 O   0  0  0  0  0  0  0  0  0  0  0  0
    6.5058   -4.9383    1.4123 N   0  0  0  0  0  0  0  0  0  0  0  0
    7.7412   -5.0630    0.6243 C   0  0  2  0  0  0  0  0  0  0  0  0
    8.7967   -5.7952    1.4649 C   0  0  0  0  0  0  0  0  0  0  0  0
    8.2618   -3.7121    0.1959 C   0  0  0  0  0  0  0  0  0  0  0  0
    7.5038   -2.7010    0.2267 O   0  0  0  0  0  0  0  0  0  0  0  0
    9.5807   -3.6013   -0.3575 N   0  0  0  0  0  0  0  0  0  0  0  0
   10.5471   -2.5176   -0.1033 C   0  0  2  0  0  0  0  0  0  0  0  0
   11.8631   -3.1270    0.3935 C   0  0  0  0  0  0  0  0  0  0  0  0
   10.0583   -1.4933    0.8984 C   0  0  0  0  0  0  0  0  0  0  0  0
    9.6068   -1.8713    2.0151 O   0  0  0  0  0  0  0  0  0  0  0  0
   10.0910   -0.0943    0.5981 N   0  0  0  0  0  0  0  0  0  0  0  0
   11.2896    0.5579    0.0604 C   0  0  2  0  0  0  0  0  0  0  0  0
   12.0871    1.1948    1.2017 C   0  0  0  0  0  0  0  0  0  0  0  0
   10.8906    1.5870   -0.9557 C   0  0  0  0  0  0  0  0  0  0  0  0
   11.3221    1.5019   -2.1411 O   0  0  0  0  0  0  0  0  0  0  0  0
   10.0652    2.6871   -0.5777 N   0  0  0  0  0  0  0  0  0  0  0  0
    8.7383    2.8753   -1.1593 C   0  0  2  0  0  0  0  0  0  0  0  0
    8.8044    3.8542   -2.3315 C   0  0  0  0  0  0  0  0  0  0  0  0
    7.7786    3.3723   -0.1141 C   0  0  0  0  0  0  0  0  0  0  0  0
    6.7376    2.7041    0.1469 O   0  0  0  0  0  0  0  0  0  0  0  0
    8.0322    4.5885    0.5977 N   0  0  0  0  0  0  0  0  0  0  0  0
    7.1594    5.7503    0.4092 C   0  0  2  0  0  0  0  0  0  0  0  0
    7.8290    7.0182    0.9479 C   0  0  0  0  0  0  0  0  0  0  0  0
    5.8400    5.5349    1.1133 C   0  0  0  0  0  0  0  0  0  0  0  0
    5.8690    5.1460    2.3138 O   0  0  0  0  0  0  0  0  0  0  0  0
    4.5529    5.7809    0.5118 N   0  0  0  0  0  0  0  0  0  0  0  0
    4.2982    6.3336   -0.8294 C   0  0  2  0  0  0  0  0  0  0  0  0
    3.7700    7.7407   -0.7338 C   0  0  0  0  0  0  0  0  0  0  0  0
    4.0300    8.6742   -1.7860 N   0  0  0  0  0  0  0  0  0  0  0  0
    3.0867    8.1031    0.2607 O   0  0  0  0  0  0  0  0  0  0  0  0
    3.3368    5.4235   -1.6134 C   0  0  0  0  0  0  0  0  0  0  0  0
    1.6460    5.3621   -0.9009 S   0  0  0  0  0  0  0  0  0  0  0  0
    1.7910    3.7530   -0.0543 C   0  0  0  0  0  0  0  0  0  0  0  0
   -6.2875    8.1960    3.5254 H   0  0  0  0  0  0  0  0  0  0  0  0
   -6.9322    9.2578    2.2100 H   0  0  0  0  0  0  0  0  0  0  0  0
   -7.9065    7.8500    2.7940 H   0  0  0  0  0  0  0  0  0  0  0  0
   -6.2550    5.6129    2.8446 H   0  0  0  0  0  0  0  0  0  0  0  0
   -5.3543    3.9961    1.4785 H   0  0  0  0  0  0  0  0  0  0  0  0
   -3.8972    6.3157    0.0979 H   0  0  0  0  0  0  0  0  0  0  0  0
   -3.4982    4.5839   -0.0503 H   0  0  0  0  0  0  0  0  0  0  0  0
   -2.0695    3.6047    3.4057 H   0  0  0  0  0  0  0  0  0  0  0  0
   -3.5326    3.1609    2.4961 H   0  0  0  0  0  0  0  0  0  0  0  0
    0.0039    4.3604    1.9016 H   0  0  0  0  0  0  0  0  0  0  0  0
    0.4903    1.9949   -1.6480 H   0  0  0  0  0  0  0  0  0  0  0  0
   -3.1853    1.7991    0.5895 H   0  0  0  0  0  0  0  0  0  0  0  0
   -2.4655    1.3246   -2.4172 H   0  0  0  0  0  0  0  0  0  0  0  0
   -2.7671    0.1332   -1.1008 H   0  0  0  0  0  0  0  0  0  0  0  0
    0.9024   -0.3897   -0.6134 H   0  0  0  0  0  0  0  0  0  0  0  0
   -0.6849   -0.8953    0.0611 H   0  0  0  0  0  0  0  0  0  0  0  0
    1.1580   -2.5031   -1.8079 H   0  0  0  0  0  0  0  0  0  0  0  0
   -0.6743   -3.7926   -2.2370 H   0  0  0  0  0  0  0  0  0  0  0  0
   -3.9641   -3.3430   -0.6746 H   0  0  0  0  0  0  0  0  0  0  0  0
   -2.9912   -3.2280   -3.0029 H   0  0  0  0  0  0  0  0  0  0  0  0
   -2.5233   -4.9804   -2.8638 H   0  0  0  0  0  0  0  0  0  0  0  0
   -4.2498   -4.4969   -2.8251 H   0  0  0  0  0  0  0  0  0  0  0  0
   -2.5536   -5.9487   -0.1502 H   0  0  0  0  0  0  0  0  0  0  0  0
   -5.8298   -4.3885   -1.0377 H   0  0  0  0  0  0  0  0  0  0  0  0
   -6.9409   -7.2431   -0.8087 H   0  0  0  0  0  0  0  0  0  0  0  0
   -7.6152   -5.8714   -1.7794 H   0  0  0  0  0  0  0  0  0  0  0  0
   -6.0209   -6.5757   -2.2108 H   0  0  0  0  0  0  0  0  0  0  0  0
   -6.4053   -4.2716    1.4234 H   0  0  0  0  0  0  0  0  0  0  0  0
   -8.9212   -3.9077   -0.3635 H   0  0  0  0  0  0  0  0  0  0  0  0
   -9.9646   -6.0973   -0.9866 H   0  0  0  0  0  0  0  0  0  0  0  0
  -11.2076   -4.8549   -0.5892 H   0  0  0  0  0  0  0  0  0  0  0  0
  -10.8214   -6.1455    0.6075 H   0  0  0  0  0  0  0  0  0  0  0  0
   -9.9817   -4.2641    2.4620 H   0  0  0  0  0  0  0  0  0  0  0  0
  -10.3285   -2.3134   -0.7173 H   0  0  0  0  0  0  0  0  0  0  0  0
  -12.6305   -2.8048    0.1803 H   0  0  0  0  0  0  0  0  0  0  0  0
  -12.6795   -1.1337    0.8851 H   0  0  0  0  0  0  0  0  0  0  0  0
  -12.5892   -1.3775   -0.9024 H   0  0  0  0  0  0  0  0  0  0  0  0
   -9.6465    0.0046    0.8737 H   0  0  0  0  0  0  0  0  0  0  0  0
   -9.1518    2.1751   -1.3570 H   0  0  0  0  0  0  0  0  0  0  0  0
  -12.1976    2.4686   -1.6702 H   0  0  0  0  0  0  0  0  0  0  0  0
  -10.9878    3.7950   -1.8475 H   0  0  0  0  0  0  0  0  0  0  0  0
  -10.9584    2.4108   -2.9919 H   0  0  0  0  0  0  0  0  0  0  0  0
  -11.3187    2.2490    0.8013 H   0  0  0  0  0  0  0  0  0  0  0  0
   -7.6823    3.8771    1.8980 H   0  0  0  0  0  0  0  0  0  0  0  0
   -7.6161    1.4367    0.0183 H   0  0  0  0  0  0  0  0  0  0  0  0
   -6.3351    2.0153    1.1129 H   0  0  0  0  0  0  0  0  0  0  0  0
   -7.8581    1.3829    1.8097 H   0  0  0  0  0  0  0  0  0  0  0  0
   -8.1724    4.2377   -1.0323 H   0  0  0  0  0  0  0  0  0  0  0  0
    1.0570   -4.8858    1.1953 H   0  0  0  0  0  0  0  0  0  0  0  0
    3.5582   -4.5902    0.4104 H   0  0  0  0  0  0  0  0  0  0  0  0
    3.1907   -3.5215   -1.7184 H   0  0  0  0  0  0  0  0  0  0  0  0
    2.0083   -4.7993   -2.2478 H   0  0  0  0  0  0  0  0  0  0  0  0
    3.7620   -5.1740   -2.0806 H   0  0  0  0  0  0  0  0  0  0  0  0
    3.5482   -8.2775    0.6345 H   0  0  0  0  0  0  0  0  0  0  0  0
    5.3271   -6.2975   -0.6136 H   0  0  0  0  0  0  0  0  0  0  0  0
    5.7594   -8.7639   -0.5342 H   0  0  0  0  0  0  0  0  0  0  0  0
    5.9922   -8.6729    1.2545 H   0  0  0  0  0  0  0  0  0  0  0  0
    7.1256   -7.8357    0.1246 H   0  0  0  0  0  0  0  0  0  0  0  0
    6.5067   -4.2191    2.1747 H   0  0  0  0  0  0  0  0  0  0  0  0
    7.5569   -5.6428   -0.3023 H   0  0  0  0  0  0  0  0  0  0  0  0
    8.3851   -6.7464    1.8599 H   0  0  0  0  0  0  0  0  0  0  0  0
    9.6855   -6.0410    0.8453 H   0  0  0  0  0  0  0  0  0  0  0  0
    9.1151   -5.1667    2.3239 H   0  0  0  0  0  0  0  0  0  0  0  0
    9.9085   -4.3855   -0.9713 H   0  0  0  0  0  0  0  0  0  0  0  0
   10.7476   -2.0150   -1.0710 H   0  0  0  0  0  0  0  0  0  0  0  0
   12.6063   -2.3304    0.6184 H   0  0  0  0  0  0  0  0  0  0  0  0
   11.6903   -3.7287    1.3129 H   0  0  0  0  0  0  0  0  0  0  0  0
   12.2930   -3.7828   -0.3900 H   0  0  0  0  0  0  0  0  0  0  0  0
    9.3770    0.5130    1.0650 H   0  0  0  0  0  0  0  0  0  0  0  0
   11.9520   -0.1849   -0.4324 H   0  0  0  0  0  0  0  0  0  0  0  0
   12.4179    0.4060    1.9112 H   0  0  0  0  0  0  0  0  0  0  0  0
   11.4683    1.9332    1.7544 H   0  0  0  0  0  0  0  0  0  0  0  0
   12.9897    1.7002    0.8010 H   0  0  0  0  0  0  0  0  0  0  0  0
   10.5095    3.4584   -0.0271 H   0  0  0  0  0  0  0  0  0  0  0  0
    8.3681    1.9005   -1.5538 H   0  0  0  0  0  0  0  0  0  0  0  0
    7.7882    4.0014   -2.7599 H   0  0  0  0  0  0  0  0  0  0  0  0
    9.4617    3.4486   -3.1281 H   0  0  0  0  0  0  0  0  0  0  0  0
    9.1993    4.8418   -2.0037 H   0  0  0  0  0  0  0  0  0  0  0  0
    8.9564    4.7130    1.0707 H   0  0  0  0  0  0  0  0  0  0  0  0
    7.0478    5.8886   -0.6790 H   0  0  0  0  0  0  0  0  0  0  0  0
    8.0829    6.8996    2.0241 H   0  0  0  0  0  0  0  0  0  0  0  0
    7.1457    7.8865    0.8399 H   0  0  0  0  0  0  0  0  0  0  0  0
    8.7593    7.2281    0.3799 H   0  0  0  0  0  0  0  0  0  0  0  0
    3.7300    5.7036    1.1464 H   0  0  0  0  0  0  0  0  0  0  0  0
    5.2185    6.3730   -1.4300 H   0  0  0  0  0  0  0  0  0  0  0  0
    3.6950    9.6604   -1.7165 H   0  0  0  0  0  0  0  0  0  0  0  0
    4.6325    8.4043   -2.5942 H   0  0  0  0  0  0  0  0  0  0  0  0
    3.7911    4.4132   -1.7011 H   0  0  0  0  0  0  0  0  0  0  0  0
    3.2397    5.8227   -2.6456 H   0  0  0  0  0  0  0  0  0  0  0  0
    2.2788    3.8865    0.9322 H   0  0  0  0  0  0  0  0  0  0  0  0
    2.4052    3.0338   -0.6393 H   0  0  0  0  0  0  0  0  0  0  0  0
  1  2  1  0
  2  3  2  0
  2  4  1  0
  4  5  1  0
  5  6  1  0
  6  7  1  0
  7  8  1  0
  8  9  1  0
  9 10  2  0
 10 11  1  0
 11 12  2  0
 12 13  1  0
 13 14  2  0
 13 15  1  0
 15 16  1  0
 16 17  1  0
 17 18  1  0
 18 19  1  0
 19 20  1  0
 20 21  2  0
 20 22  1  0
 22 23  1  0
 22 24  1  0
 24 25  1  0
 25 26  2  0
 25 27  1  0
 27 28  1  0
 27 29  1  0
 29 30  1  0
 30 31  2  0
 30 32  1  0
 32 33  1  0
 32 34  1  0
 34 35  1  0
 35 36  2  0
 35 37  1  0
 37 38  1  0
 37 39  1  0
 39 40  1  0
 40 41  2  0
 40 42  1  0
 42 43  1  0
 42 44  1  0
 44 45  1  0
 45 46  2  0
 45 47  1  0
 47 48  1  0
 47 49  1  0
 49 50  1  0
 50 51  2  0
 18 52  1  0
 52 53  2  0
 52 54  1  0
 54 55  1  0
 55 56  1  0
 55 57  1  0
 57 58  2  0
 57 59  1  0
 59 60  1  0
 60 61  1  0
 60 62  1  0
 62 63  2  0
 62 64  1  0
 64 65  1  0
 65 66  1  0
 65 67  1  0
 67 68  2  0
 67 69  1  0
 69 70  1  0
 70 71  1  0
 70 72  1  0
 72 73  2  0
 72 74  1  0
 74 75  1  0
 75 76  1  0
 75 77  1  0
 77 78  2  0
 77 79  1  0
 79 80  1  0
 80 81  1  0
 80 82  1  0
 82 83  2  0
 82 84  1  0
 84 85  1  0
 85 86  1  0
 85 87  1  0
 87 88  2  0
 87 89  1  0
 89 90  1  0
 90 91  1  0
 91 92  1  0
 91 93  2  0
 90 94  1  0
 94 95  1  0
 95 96  1  0
 50  5  1  0
 14  9  1  0
 96 11  1  0
  1 97  1  0
  1 98  1  0
  1 99  1  0
  4100  1  0
  5101  1  1
  6102  1  0
  6103  1  0
  8104  1  0
  8105  1  0
 10106  1  0
 12107  1  0
 14108  1  0
 15109  1  0
 15110  1  0
 17111  1  0
 17112  1  0
 18113  1  6
 19114  1  0
 22115  1  1
 23116  1  0
 23117  1  0
 23118  1  0
 24119  1  0
 27120  1  6
 28121  1  0
 28122  1  0
 28123  1  0
 29124  1  0
 32125  1  6
 33126  1  0
 33127  1  0
 33128  1  0
 34129  1  0
 37130  1  6
 38131  1  0
 38132  1  0
 38133  1  0
 39134  1  0
 42135  1  6
 43136  1  0
 43137  1  0
 43138  1  0
 44139  1  0
 47140  1  1
 48141  1  0
 48142  1  0
 48143  1  0
 49144  1  0
 54145  1  0
 55146  1  1
 56147  1  0
 56148  1  0
 56149  1  0
 59150  1  0
 60151  1  6
 61152  1  0
 61153  1  0
 61154  1  0
 64155  1  0
 65156  1  6
 66157  1  0
 66158  1  0
 66159  1  0
 69160  1  0
 70161  1  6
 71162  1  0
 71163  1  0
 71164  1  0
 74165  1  0
 75166  1  6
 76167  1  0
 76168  1  0
 76169  1  0
 79170  1  0
 80171  1  6
 81172  1  0
 81173  1  0
 81174  1  0
 84175  1  0
 85176  1  6
 86177  1  0
 86178  1  0
 86179  1  0
 89180  1  0
 90181  1  6
 92182  1  0
 92183  1  0
 94184  1  0
 94185  1  0
 96186  1  0
 96187  1  0
M  END
