
     RDKit          3D

187189  0  0  0  0  0  0  0  0999 V2000
   -6.8999    8.4202    1.5308 C   0  0  0  0  0  0  0  0  0  0  0  0
   -6.8361    6.9276    1.5358 C   0  0  0  0  0  0  0  0  0  0  0  0
   -6.8291    6.3179    2.6385 O   0  0  0  0  0  0  0  0  0  0  0  0
   -6.8052    6.1956    0.3007 N   0  0  0  0  0  0  0  0  0  0  0  0
   -6.6036    4.7416    0.2223 C   0  0  1  0  0  0  0  0  0  0  0  0
   -5.1739    4.3873    0.6832 C   0  0  0  0  0  0  0  0  0  0  0  0
   -3.9396    5.1903   -0.4200 S   0  0  0  0  0  0  0  0  0  0  0  0
   -3.4134    3.6975   -1.3255 C   0  0  0  0  0  0  0  0  0  0  0  0
   -2.1067    3.2077   -0.7769 C   0  0  0  0  0  0  0  0  0  0  0  0
   -0.9078    3.8371   -1.1488 C   0  0  0  0  0  0  0  0  0  0  0  0
    0.3318    3.3049   -0.7603 C   0  0  0  0  0  0  0  0  0  0  0  0
    0.3603    2.1514    0.0455 C   0  0  0  0  0  0  0  0  0  0  0  0
   -0.8333    1.5427    0.4645 C   0  0  0  0  0  0  0  0  0  0  0  0
   -2.0644    2.0593    0.0300 C   0  0  0  0  0  0  0  0  0  0  0  0
   -0.7940    0.2461    1.2195 C   0  0  0  0  0  0  0  0  0  0  0  0
   -1.0950   -1.1275    0.0533 S   0  0  0  0  0  0  0  0  0  0  0  0
   -0.2779   -2.4000    1.0691 C   0  0  0  0  0  0  0  0  0  0  0  0
   -0.4223   -3.7783    0.4035 C   0  0  2  0  0  0  0  0  0  0  0  0
   -1.8155   -4.2431    0.3733 N   0  0  0  0  0  0  0  0  0  0  0  0
   -2.5519   -4.6559    1.5409 C   0  0  0  0  0  0  0  0  0  0  0  0
   -2.3961   -4.0519    2.6371 O   0  0  0  0  0  0  0  0  0  0  0  0
   -3.4103   -5.8899    1.4794 C   0  0  1  0  0  0  0  0  0  0  0  0
   -2.5447   -7.1145    1.7847 C   0  0  0  0  0  0  0  0  0  0  0  0
   -4.5206   -5.8196    2.4412 N   0  0  0  0  0  0  0  0  0  0  0  0
   -5.8449   -6.3360    2.2095 C   0  0  0  0  0  0  0  0  0  0  0  0
   -6.7270   -6.1554    3.0944 O   0  0  0  0  0  0  0  0  0  0  0  0
   -6.2340   -7.0396    0.9214 C   0  0  1  0  0  0  0  0  0  0  0  0
   -7.1968   -8.1973    1.2044 C   0  0  0  0  0  0  0  0  0  0  0  0
   -6.8602   -6.1122   -0.0353 N   0  0  0  0  0  0  0  0  0  0  0  0
   -6.8878   -4.6865    0.1223 C   0  0  0  0  0  0  0  0  0  0  0  0
   -5.8034   -4.0459    0.1463 O   0  0  0  0  0  0  0  0  0  0  0  0
   -8.1901   -3.9261    0.1707 C   0  0  1  0  0  0  0  0  0  0  0  0
   -9.3732   -4.8326    0.5279 C   0  0  0  0  0  0  0  0  0  0  0  0
   -8.0913   -2.8549    1.1721 N   0  0  0  0  0  0  0  0  0  0  0  0
   -8.3813   -1.4724    0.9215 C   0  0  0  0  0  0  0  0  0  0  0  0
   -7.8102   -0.5914    1.6214 O   0  0  0  0  0  0  0  0  0  0  0  0
   -9.3792   -1.0347   -0.1274 C   0  0  1  0  0  0  0  0  0  0  0  0
  -10.4636   -0.1591    0.5223 C   0  0  0  0  0  0  0  0  0  0  0  0
   -8.6735   -0.3100   -1.1912 N   0  0  0  0  0  0  0  0  0  0  0  0
   -9.3403    0.6165   -2.0565 C   0  0  0  0  0  0  0  0  0  0  0  0
  -10.0687    0.1864   -2.9911 O   0  0  0  0  0  0  0  0  0  0  0  0
   -9.1386    2.0996   -1.8709 C   0  0  1  0  0  0  0  0  0  0  0  0
   -8.3370    2.6766   -3.0410 C   0  0  0  0  0  0  0  0  0  0  0  0
  -10.4369    2.7785   -1.7468 N   0  0  0  0  0  0  0  0  0  0  0  0
  -10.6416    4.1286   -1.2932 C   0  0  0  0  0  0  0  0  0  0  0  0
  -11.7134    4.7066   -1.6410 O   0  0  0  0  0  0  0  0  0  0  0  0
   -9.6123    4.9016   -0.4870 C   0  0  1  0  0  0  0  0  0  0  0  0
  -10.2223    6.1739    0.1190 C   0  0  0  0  0  0  0  0  0  0  0  0
   -9.0813    4.0769    0.6032 N   0  0  0  0  0  0  0  0  0  0  0  0
   -7.6911    4.0113    0.9874 C   0  0  0  0  0  0  0  0  0  0  0  0
   -7.3793    3.3219    1.9998 O   0  0  0  0  0  0  0  0  0  0  0  0
    0.4791   -4.8024    1.0699 C   0  0  0  0  0  0  0  0  0  0  0  0
    0.3041   -5.0449    2.2916 O   0  0  0  0  0  0  0  0  0  0  0  0
    1.5351   -5.4891    0.3811 N   0  0  0  0  0  0  0  0  0  0  0  0
    1.8083   -5.4137   -1.0576 C   0  0  2  0  0  0  0  0  0  0  0  0
    0.8053   -6.2547   -1.8507 C   0  0  0  0  0  0  0  0  0  0  0  0
    3.2203   -5.8623   -1.3302 C   0  0  0  0  0  0  0  0  0  0  0  0
    3.5786   -7.0379   -1.0507 O   0  0  0  0  0  0  0  0  0  0  0  0
    4.1700   -4.9335   -1.8530 N   0  0  0  0  0  0  0  0  0  0  0  0
    5.2097   -4.3705   -0.9969 C   0  0  2  0  0  0  0  0  0  0  0  0
    4.9533   -2.8716   -0.8031 C   0  0  0  0  0  0  0  0  0  0  0  0
    6.5612   -4.6279   -1.6090 C   0  0  0  0  0  0  0  0  0  0  0  0
    6.7742   -4.2382   -2.7871 O   0  0  0  0  0  0  0  0  0  0  0  0
    7.6113   -5.3266   -0.9148 N   0  0  0  0  0  0  0  0  0  0  0  0
    7.9529   -5.1789    0.5091 C   0  0  2  0  0  0  0  0  0  0  0  0
    7.0531   -6.0503    1.4127 C   0  0  0  0  0  0  0  0  0  0  0  0
    8.0138   -3.7210    0.9031 C   0  0  0  0  0  0  0  0  0  0  0  0
    7.5530   -3.3393    2.0157 O   0  0  0  0  0  0  0  0  0  0  0  0
    8.5790   -2.7550    0.0062 N   0  0  0  0  0  0  0  0  0  0  0  0
   10.0084   -2.4342   -0.0492 C   0  0  2  0  0  0  0  0  0  0  0  0
   10.9048   -3.6315    0.2665 C   0  0  0  0  0  0  0  0  0  0  0  0
   10.3052   -1.2830    0.8818 C   0  0  0  0  0  0  0  0  0  0  0  0
   10.2198   -1.4752    2.1237 O   0  0  0  0  0  0  0  0  0  0  0  0
   10.7014    0.0099    0.4059 N   0  0  0  0  0  0  0  0  0  0  0  0
   10.2763    0.6069   -0.8679 C   0  0  2  0  0  0  0  0  0  0  0  0
   11.5157    0.9267   -1.7109 C   0  0  0  0  0  0  0  0  0  0  0  0
    9.4155    1.8084   -0.5763 C   0  0  0  0  0  0  0  0  0  0  0  0
    8.2937    1.6226   -0.0298 O   0  0  0  0  0  0  0  0  0  0  0  0
    9.8292    3.1449   -0.9074 N   0  0  0  0  0  0  0  0  0  0  0  0
   10.0924    4.1859    0.0970 C   0  0  2  0  0  0  0  0  0  0  0  0
   11.4849    3.9918    0.6985 C   0  0  0  0  0  0  0  0  0  0  0  0
    9.0275    4.2128    1.1786 C   0  0  0  0  0  0  0  0  0  0  0  0
    9.0599    3.3274    2.0746 O   0  0  0  0  0  0  0  0  0  0  0  0
    7.9868    5.2091    1.2384 N   0  0  0  0  0  0  0  0  0  0  0  0
    7.8698    6.3855    0.3703 C   0  0  2  0  0  0  0  0  0  0  0  0
    7.0905    7.5005    1.0774 C   0  0  0  0  0  0  0  0  0  0  0  0
    7.2766    6.0077   -0.9740 C   0  0  0  0  0  0  0  0  0  0  0  0
    8.0361    5.5104   -1.8465 O   0  0  0  0  0  0  0  0  0  0  0  0
    5.9106    6.2796   -1.3436 N   0  0  0  0  0  0  0  0  0  0  0  0
    4.7158    5.9139   -0.5708 C   0  0  2  0  0  0  0  0  0  0  0  0
    4.9170    4.6115    0.1699 C   0  0  0  0  0  0  0  0  0  0  0  0
    5.3617    3.4360   -0.5164 N   0  0  0  0  0  0  0  0  0  0  0  0
    4.6692    4.5468    1.4011 O   0  0  0  0  0  0  0  0  0  0  0  0
    3.4916    5.8136   -1.5048 C   0  0  0  0  0  0  0  0  0  0  0  0
    1.9439    5.5044   -0.5684 S   0  0  0  0  0  0  0  0  0  0  0  0
    1.6050    3.8772   -1.3141 C   0  0  0  0  0  0  0  0  0  0  0  0
   -7.8473    8.7518    2.0037 H   0  0  0  0  0  0  0  0  0  0  0  0
   -6.8583    8.8139    0.4928 H   0  0  0  0  0  0  0  0  0  0  0  0
   -6.0414    8.8283    2.1058 H   0  0  0  0  0  0  0  0  0  0  0  0
   -6.8914    6.7208   -0.5992 H   0  0  0  0  0  0  0  0  0  0  0  0
   -6.6750    4.4231   -0.8402 H   0  0  0  0  0  0  0  0  0  0  0  0
   -5.0039    4.7555    1.7136 H   0  0  0  0  0  0  0  0  0  0  0  0
   -5.0391    3.2858    0.7229 H   0  0  0  0  0  0  0  0  0  0  0  0
   -4.1935    2.9049   -1.2989 H   0  0  0  0  0  0  0  0  0  0  0  0
   -3.2939    3.9419   -2.4048 H   0  0  0  0  0  0  0  0  0  0  0  0
   -0.9382    4.7252   -1.7769 H   0  0  0  0  0  0  0  0  0  0  0  0
    1.3043    1.6981    0.3134 H   0  0  0  0  0  0  0  0  0  0  0  0
   -2.9822    1.5441    0.2899 H   0  0  0  0  0  0  0  0  0  0  0  0
    0.1892    0.1222    1.7130 H   0  0  0  0  0  0  0  0  0  0  0  0
   -1.5821    0.2337    2.0001 H   0  0  0  0  0  0  0  0  0  0  0  0
    0.8017   -2.1483    1.1216 H   0  0  0  0  0  0  0  0  0  0  0  0
   -0.6996   -2.3868    2.0955 H   0  0  0  0  0  0  0  0  0  0  0  0
   -0.1064   -3.6328   -0.6482 H   0  0  0  0  0  0  0  0  0  0  0  0
   -2.2210   -4.4786   -0.5611 H   0  0  0  0  0  0  0  0  0  0  0  0
   -3.7991   -5.9719    0.4454 H   0  0  0  0  0  0  0  0  0  0  0  0
   -2.0698   -7.0088    2.7862 H   0  0  0  0  0  0  0  0  0  0  0  0
   -3.1616   -8.0420    1.7793 H   0  0  0  0  0  0  0  0  0  0  0  0
   -1.7425   -7.2171    1.0222 H   0  0  0  0  0  0  0  0  0  0  0  0
   -4.3305   -5.4476    3.3983 H   0  0  0  0  0  0  0  0  0  0  0  0
   -5.3452   -7.4966    0.4434 H   0  0  0  0  0  0  0  0  0  0  0  0
   -6.7770   -8.8646    1.9913 H   0  0  0  0  0  0  0  0  0  0  0  0
   -7.3415   -8.7982    0.2828 H   0  0  0  0  0  0  0  0  0  0  0  0
   -8.1860   -7.8184    1.5376 H   0  0  0  0  0  0  0  0  0  0  0  0
   -7.2501   -6.5075   -0.9258 H   0  0  0  0  0  0  0  0  0  0  0  0
   -8.3656   -3.5049   -0.8455 H   0  0  0  0  0  0  0  0  0  0  0  0
  -10.2960   -4.2217    0.6120 H   0  0  0  0  0  0  0  0  0  0  0  0
   -9.1952   -5.3453    1.4975 H   0  0  0  0  0  0  0  0  0  0  0  0
   -9.5350   -5.5929   -0.2608 H   0  0  0  0  0  0  0  0  0  0  0  0
   -7.6807   -3.0978    2.1052 H   0  0  0  0  0  0  0  0  0  0  0  0
   -9.8906   -1.9079   -0.5751 H   0  0  0  0  0  0  0  0  0  0  0  0
  -11.2881    0.0368   -0.1978 H   0  0  0  0  0  0  0  0  0  0  0  0
  -10.9062   -0.6862    1.3978 H   0  0  0  0  0  0  0  0  0  0  0  0
  -10.0461    0.8121    0.8596 H   0  0  0  0  0  0  0  0  0  0  0  0
   -7.8192   -0.7637   -1.5929 H   0  0  0  0  0  0  0  0  0  0  0  0
   -8.5472    2.2378   -0.9464 H   0  0  0  0  0  0  0  0  0  0  0  0
   -7.3689    2.1421   -3.1429 H   0  0  0  0  0  0  0  0  0  0  0  0
   -8.1190    3.7500   -2.8681 H   0  0  0  0  0  0  0  0  0  0  0  0
   -8.9126    2.5905   -3.9925 H   0  0  0  0  0  0  0  0  0  0  0  0
  -11.2695    2.3077   -2.1698 H   0  0  0  0  0  0  0  0  0  0  0  0
   -8.8075    5.2087   -1.1805 H   0  0  0  0  0  0  0  0  0  0  0  0
  -11.1150    5.9217    0.7329 H   0  0  0  0  0  0  0  0  0  0  0  0
   -9.4876    6.6843    0.7715 H   0  0  0  0  0  0  0  0  0  0  0  0
  -10.5165    6.8844   -0.6847 H   0  0  0  0  0  0  0  0  0  0  0  0
   -9.7668    3.5679    1.2050 H   0  0  0  0  0  0  0  0  0  0  0  0
    2.0499   -6.2137    0.9415 H   0  0  0  0  0  0  0  0  0  0  0  0
    1.7507   -4.3576   -1.3932 H   0  0  0  0  0  0  0  0  0  0  0  0
   -0.2332   -5.9383   -1.6243 H   0  0  0  0  0  0  0  0  0  0  0  0
    0.9131   -7.3283   -1.5827 H   0  0  0  0  0  0  0  0  0  0  0  0
    0.9843   -6.1384   -2.9407 H   0  0  0  0  0  0  0  0  0  0  0  0
    3.9730   -4.4924   -2.7788 H   0  0  0  0  0  0  0  0  0  0  0  0
    5.1427   -4.8415   -0.0033 H   0  0  0  0  0  0  0  0  0  0  0  0
    5.1623   -2.3081   -1.7336 H   0  0  0  0  0  0  0  0  0  0  0  0
    5.5842   -2.4735    0.0183 H   0  0  0  0  0  0  0  0  0  0  0  0
    3.8907   -2.7055   -0.5298 H   0  0  0  0  0  0  0  0  0  0  0  0
    8.3646   -5.7356   -1.5219 H   0  0  0  0  0  0  0  0  0  0  0  0
    8.9749   -5.5905    0.6423 H   0  0  0  0  0  0  0  0  0  0  0  0
    6.1609   -5.5037    1.7755 H   0  0  0  0  0  0  0  0  0  0  0  0
    7.6234   -6.3687    2.3121 H   0  0  0  0  0  0  0  0  0  0  0  0
    6.7271   -6.9634    0.8736 H   0  0  0  0  0  0  0  0  0  0  0  0
    7.9368   -1.9844   -0.2971 H   0  0  0  0  0  0  0  0  0  0  0  0
   10.2530   -2.1507   -1.0928 H   0  0  0  0  0  0  0  0  0  0  0  0
   10.7312   -4.0021    1.3003 H   0  0  0  0  0  0  0  0  0  0  0  0
   11.9728   -3.3403    0.1820 H   0  0  0  0  0  0  0  0  0  0  0  0
   10.7188   -4.4508   -0.4576 H   0  0  0  0  0  0  0  0  0  0  0  0
   11.2054    0.6302    1.0814 H   0  0  0  0  0  0  0  0  0  0  0  0
    9.6502   -0.0964   -1.4520 H   0  0  0  0  0  0  0  0  0  0  0  0
   12.1549    1.6774   -1.2075 H   0  0  0  0  0  0  0  0  0  0  0  0
   12.1091    0.0032   -1.8642 H   0  0  0  0  0  0  0  0  0  0  0  0
   11.2079    1.3131   -2.7066 H   0  0  0  0  0  0  0  0  0  0  0  0
   10.1507    3.3272   -1.8837 H   0  0  0  0  0  0  0  0  0  0  0  0
   10.1253    5.1532   -0.4316 H   0  0  0  0  0  0  0  0  0  0  0  0
   12.2515    4.0652   -0.1000 H   0  0  0  0  0  0  0  0  0  0  0  0
   11.5746    2.9982    1.1772 H   0  0  0  0  0  0  0  0  0  0  0  0
   11.6898    4.7832    1.4509 H   0  0  0  0  0  0  0  0  0  0  0  0
    7.3365    5.1308    2.0593 H   0  0  0  0  0  0  0  0  0  0  0  0
    8.8794    6.8118    0.1931 H   0  0  0  0  0  0  0  0  0  0  0  0
    6.8213    8.3133    0.3679 H   0  0  0  0  0  0  0  0  0  0  0  0
    7.7180    7.9421    1.8785 H   0  0  0  0  0  0  0  0  0  0  0  0
    6.1656    7.1190    1.5514 H   0  0  0  0  0  0  0  0  0  0  0  0
    5.7721    6.6921   -2.3041 H   0  0  0  0  0  0  0  0  0  0  0  0
    4.4985    6.7220    0.1551 H   0  0  0  0  0  0  0  0  0  0  0  0
    5.4291    2.5310   -0.0017 H   0  0  0  0  0  0  0  0  0  0  0  0
    5.5447    3.4449   -1.5476 H   0  0  0  0  0  0  0  0  0  0  0  0
    3.3637    6.7846   -2.0335 H   0  0  0  0  0  0  0  0  0  0  0  0
    3.6763    5.0430   -2.2850 H   0  0  0  0  0  0  0  0  0  0  0  0
    2.4635    3.1969   -1.1243 H   0  0  0  0  0  0  0  0  0  0  0  0
    1.5019    3.9855   -2.4150 H   0  0  0  0  0  0  0  0  0  0  0  0
  1  2  1  0
  2  3  2  0
  2  4  1  0
  4  5  1  0
  5  6  1  0
  6  7  1  0
  7  8  1  0
  8  9  1  0
  9 10  2  0
 10 11  1  0
 11 12  2  0
 12 13  1  0
 13 14  2  0
 13 15  1  0
 15 16  1  0
 16 17  1  0
 17 18  1  0
 18 19  1  0
 19 20  1  0
 20 21  2  0
 20 22  1  0
 22 23  1  0
 22 24  1  0
 24 25  1  0
 25 26  2  0
 25 27  1  0
 27 28  1  0
 27 29  1  0
 29 30  1  0
 30 31  2  0
 30 32  1  0
 32 33  1  0
 32 34  1  0
 34 35  1  0
 35 36  2  0
 35 37  1  0
 37 38  1  0
 37 39  1  0
 39 40  1  0
 40 41  2  0
 40 42  1  0
 42 43  1  0
 42 44  1  0
 44 45  1  0
 45 46  2  0
 45 47  1  0
 47 48  1  0
 47 49  1  0
 49 50  1  0
 50 51  2  0
 18 52  1  0
 52 53  2  0
 52 54  1  0
 54 55  1  0
 55 56  1  0
 55 57  1  0
 57 58  2  0
 57 59  1  0
 59 60  1  0
 60 61  1  0
 60 62  1  0
 62 63  2  0
 62 64  1  0
 64 65  1  0
 65 66  1  0
 65 67  1  0
 67 68  2  0
 67 69  1  0
 69 70  1  0
 70 71  1  0
 70 72  1  0
 72 73  2  0
 72 74  1  0
 74 75  1  0
 75 76  1  0
 75 77  1  0
 77 78  2  0
 77 79  1  0
 79 80  1  0
 80 81  1  0
 80 82  1  0
 82 83  2  0
 82 84  1  0
 84 85  1  0
 85 86  1  0
 85 87  1  0
 87 88  2  0
 87 89  1  0
 89 90  1  0
 90 91  1  0
 91 92  1  0
 91 93  2  0
 90 94  1  0
 94 95  1  0
 95 96  1  0
 50  5  1  0
 14  9  1  0
 96 11  1  0
  1 97  1  0
  1 98  1  0
  1 99  1  0
  4100  1  0
  5101  1  6
  6102  1  0
  6103  1  0
  8104  1  0
  8105  1  0
 10106  1  0
 12107  1  0
 14108  1  0
 15109  1  0
 15110  1  0
 17111  1  0
 17112  1  0
 18113  1  6
 19114  1  0
 22115  1  6
 23116  1  0
 23117  1  0
 23118  1  0
 24119  1  0
 27120  1  6
 28121  1  0
 28122  1  0
 28123  1  0
 29124  1  0
 32125  1  6
 33126  1  0
 33127  1  0
 33128  1  0
 34129  1  0
 37130  1  6
 38131  1  0
 38132  1  0
 38133  1  0
 39134  1  0
 42135  1  1
 43136  1  0
 43137  1  0
 43138  1  0
 44139  1  0
 47140  1  6
 48141  1  0
 48142  1  0
 48143  1  0
 49144  1  0
 54145  1  0
 55146  1  6
 56147  1  0
 56148  1  0
 56149  1  0
 59150  1  0
 60151  1  1
 61152  1  0
 61153  1  0
 61154  1  0
 64155  1  0
 65156  1  6
 66157  1  0
 66158  1  0
 66159  1  0
 69160  1  0
 70161  1  6
 71162  1  0
 71163  1  0
 71164  1  0
 74165  1  0
 75166  1  6
 76167  1  0
 76168  1  0
 76169  1  0
 79170  1  0
 80171  1  6
 81172  1  0
 81173  1  0
 81174  1  0
 84175  1  0
 85176  1  6
 86177  1  0
 86178  1  0
 86179  1  0
 89180  1  0
 90181  1  1
 92182  1  0
 92183  1  0
 94184  1  0
 94185  1  0
 96186  1  0
 96187  1  0
M  END
