
     RDKit          3D

207209  0  0  0  0  0  0  0  0999 V2000
   -8.1046    8.0317   -2.3225 C   0  0  0  0  0  0  0  0  0  0  0  0
   -7.3725    7.2463   -1.2728 C   0  0  0  0  0  0  0  0  0  0  0  0
   -6.9895    7.8296   -0.2271 O   0  0  0  0  0  0  0  0  0  0  0  0
   -7.1575    5.8351   -1.4428 N   0  0  0  0  0  0  0  0  0  0  0  0
   -6.4310    4.9890   -0.4870 C   0  0  1  0  0  0  0  0  0  0  0  0
   -4.9403    5.3835   -0.4501 C   0  0  0  0  0  0  0  0  0  0  0  0
   -4.1569    5.3622   -2.1148 S   0  0  0  0  0  0  0  0  0  0  0  0
   -3.4808    3.6517   -2.1111 C   0  0  0  0  0  0  0  0  0  0  0  0
   -2.6521    3.3450   -0.8867 C   0  0  0  0  0  0  0  0  0  0  0  0
   -1.5773    4.1807   -0.5213 C   0  0  0  0  0  0  0  0  0  0  0  0
   -0.8978    3.9787    0.6929 C   0  0  0  0  0  0  0  0  0  0  0  0
   -1.2655    2.8955    1.5086 C   0  0  0  0  0  0  0  0  0  0  0  0
   -2.2997    2.0290    1.1305 C   0  0  0  0  0  0  0  0  0  0  0  0
   -3.0082    2.2826   -0.0530 C   0  0  0  0  0  0  0  0  0  0  0  0
   -2.6791    0.8577    1.9954 C   0  0  0  0  0  0  0  0  0  0  0  0
   -1.2368   -0.2035    2.3431 S   0  0  0  0  0  0  0  0  0  0  0  0
   -1.0525   -0.9051    0.6549 C   0  0  0  0  0  0  0  0  0  0  0  0
   -1.7897   -2.2484    0.5011 C   0  0  2  0  0  0  0  0  0  0  0  0
   -1.4724   -3.1658    1.6034 N   0  0  0  0  0  0  0  0  0  0  0  0
   -2.2196   -4.3494    1.9380 C   0  0  0  0  0  0  0  0  0  0  0  0
   -1.8613   -5.0160    2.9483 O   0  0  0  0  0  0  0  0  0  0  0  0
   -3.3888   -4.8547    1.1121 C   0  0  1  0  0  0  0  0  0  0  0  0
   -2.9614   -6.1454    0.4063 C   0  0  0  0  0  0  0  0  0  0  0  0
   -4.5436   -5.1110    1.9889 N   0  0  0  0  0  0  0  0  0  0  0  0
   -5.9263   -5.1175    1.5824 C   0  0  0  0  0  0  0  0  0  0  0  0
   -6.8158   -5.0861    2.4708 O   0  0  0  0  0  0  0  0  0  0  0  0
   -6.3564   -5.3030    0.1394 C   0  0  1  0  0  0  0  0  0  0  0  0
   -6.7019   -6.7844   -0.0897 C   0  0  0  0  0  0  0  0  0  0  0  0
   -7.5228   -4.4693   -0.1691 N   0  0  0  0  0  0  0  0  0  0  0  0
   -8.1127   -4.4527   -1.4759 C   0  0  0  0  0  0  0  0  0  0  0  0
   -7.3808   -4.6051   -2.4971 O   0  0  0  0  0  0  0  0  0  0  0  0
   -9.6095   -4.3965   -1.6391 C   0  0  1  0  0  0  0  0  0  0  0  0
  -10.2154   -5.7486   -1.2636 C   0  0  0  0  0  0  0  0  0  0  0  0
  -10.1944   -3.3244   -0.8260 N   0  0  0  0  0  0  0  0  0  0  0  0
  -10.4262   -2.0144   -1.3680 C   0  0  0  0  0  0  0  0  0  0  0  0
   -9.8675   -1.6731   -2.4421 O   0  0  0  0  0  0  0  0  0  0  0  0
  -11.4235   -1.0844   -0.7244 C   0  0  1  0  0  0  0  0  0  0  0  0
  -12.8281   -1.6968   -0.7576 C   0  0  0  0  0  0  0  0  0  0  0  0
  -11.0341   -0.7733    0.6554 N   0  0  0  0  0  0  0  0  0  0  0  0
  -11.5433    0.3526    1.3948 C   0  0  0  0  0  0  0  0  0  0  0  0
  -11.4139    0.3623    2.6527 O   0  0  0  0  0  0  0  0  0  0  0  0
  -12.1399    1.5686    0.6962 C   0  0  1  0  0  0  0  0  0  0  0  0
  -12.9651    2.4543    1.6366 C   0  0  0  0  0  0  0  0  0  0  0  0
  -11.0926    2.3524    0.0413 N   0  0  0  0  0  0  0  0  0  0  0  0
  -10.0763    3.0610    0.7631 C   0  0  0  0  0  0  0  0  0  0  0  0
   -9.7096    2.6528    1.9032 O   0  0  0  0  0  0  0  0  0  0  0  0
   -9.4162    4.2788    0.1574 C   0  0  1  0  0  0  0  0  0  0  0  0
  -10.4776    5.3225   -0.1961 C   0  0  0  0  0  0  0  0  0  0  0  0
   -8.4685    4.8665    1.1128 N   0  0  0  0  0  0  0  0  0  0  0  0
   -7.0631    5.0545    0.8961 C   0  0  0  0  0  0  0  0  0  0  0  0
   -6.3408    5.3151    1.8988 O   0  0  0  0  0  0  0  0  0  0  0  0
   -1.4302   -2.8726   -0.8361 C   0  0  0  0  0  0  0  0  0  0  0  0
   -2.3298   -3.0121   -1.7056 O   0  0  0  0  0  0  0  0  0  0  0  0
   -0.0699   -3.1833   -1.1839 N   0  0  0  0  0  0  0  0  0  0  0  0
    0.7890   -4.0879   -0.4182 C   0  0  2  0  0  0  0  0  0  0  0  0
    2.0482   -3.3461    0.0493 C   0  0  0  0  0  0  0  0  0  0  0  0
    1.0943   -5.3159   -1.2331 C   0  0  0  0  0  0  0  0  0  0  0  0
    0.1479   -5.9421   -1.7814 O   0  0  0  0  0  0  0  0  0  0  0  0
    2.4361   -5.8061   -1.3737 N   0  0  0  0  0  0  0  0  0  0  0  0
    2.9835   -6.9414   -0.6163 C   0  0  2  0  0  0  0  0  0  0  0  0
    1.8933   -7.7563    0.1032 C   0  0  0  0  0  0  0  0  0  0  0  0
    4.0525   -6.4563    0.3334 C   0  0  0  0  0  0  0  0  0  0  0  0
    3.8925   -6.5430    1.5806 O   0  0  0  0  0  0  0  0  0  0  0  0
    5.2113   -5.7757   -0.1657 N   0  0  0  0  0  0  0  0  0  0  0  0
    6.4154   -6.4628   -0.6559 C   0  0  2  0  0  0  0  0  0  0  0  0
    6.1028   -7.3580   -1.8663 C   0  0  0  0  0  0  0  0  0  0  0  0
    7.0607   -7.2693    0.4550 C   0  0  0  0  0  0  0  0  0  0  0  0
    6.4201   -8.2348    0.9494 O   0  0  0  0  0  0  0  0  0  0  0  0
    8.3804   -6.9823    0.9734 N   0  0  0  0  0  0  0  0  0  0  0  0
    9.3389   -6.0290    0.3869 C   0  0  2  0  0  0  0  0  0  0  0  0
    9.8922   -6.5913   -0.9245 C   0  0  0  0  0  0  0  0  0  0  0  0
   10.4931   -5.7470    1.3398 C   0  0  0  0  0  0  0  0  0  0  0  0
   10.9183   -6.6761    2.0758 O   0  0  0  0  0  0  0  0  0  0  0  0
   11.1131   -4.4480    1.4331 N   0  0  0  0  0  0  0  0  0  0  0  0
   11.2116   -3.5116    0.3097 C   0  0  2  0  0  0  0  0  0  0  0  0
   12.5319   -3.7103   -0.4371 C   0  0  0  0  0  0  0  0  0  0  0  0
   11.0781   -2.0982    0.8080 C   0  0  0  0  0  0  0  0  0  0  0  0
   12.0282   -1.5416    1.4229 O   0  0  0  0  0  0  0  0  0  0  0  0
    9.8395   -1.3954    0.6248 N   0  0  0  0  0  0  0  0  0  0  0  0
    9.6652   -0.3352   -0.3789 C   0  0  2  0  0  0  0  0  0  0  0  0
   10.1964   -0.8086   -1.7423 C   0  0  0  0  0  0  0  0  0  0  0  0
   10.2794    0.9756    0.0639 C   0  0  0  0  0  0  0  0  0  0  0  0
   10.6666    1.1178    1.2573 O   0  0  0  0  0  0  0  0  0  0  0  0
   10.3755    2.0746   -0.8496 N   0  0  0  0  0  0  0  0  0  0  0  0
   10.4314    3.4902   -0.4551 C   0  0  2  0  0  0  0  0  0  0  0  0
   11.8192    3.8559    0.0865 C   0  0  0  0  0  0  0  0  0  0  0  0
    9.3320    3.8509    0.5081 C   0  0  0  0  0  0  0  0  0  0  0  0
    9.5455    3.8574    1.7507 O   0  0  0  0  0  0  0  0  0  0  0  0
    8.0333    4.2021    0.0037 N   0  0  0  0  0  0  0  0  0  0  0  0
    7.3777    5.4878    0.2997 C   0  0  2  0  0  0  0  0  0  0  0  0
    8.3968    6.6394    0.2033 C   0  0  0  0  0  0  0  0  0  0  0  0
    6.6721    5.4552    1.6473 C   0  0  0  0  0  0  0  0  0  0  0  0
    7.0219    4.5987    2.5076 O   0  0  0  0  0  0  0  0  0  0  0  0
    5.5781    6.3324    1.9765 N   0  0  0  0  0  0  0  0  0  0  0  0
    5.2871    7.6065    1.3110 C   0  0  2  0  0  0  0  0  0  0  0  0
    6.0829    8.7376    2.0017 C   0  0  0  0  0  0  0  0  0  0  0  0
    3.7923    7.8781    1.3581 C   0  0  0  0  0  0  0  0  0  0  0  0
    3.3553    8.9010    1.9649 O   0  0  0  0  0  0  0  0  0  0  0  0
    2.8372    6.9804    0.7636 N   0  0  0  0  0  0  0  0  0  0  0  0
    3.1131    6.1867   -0.4366 C   0  0  2  0  0  0  0  0  0  0  0  0
    2.7919    7.0151   -1.6561 C   0  0  0  0  0  0  0  0  0  0  0  0
    3.8340    7.4480   -2.5322 N   0  0  0  0  0  0  0  0  0  0  0  0
    1.5975    7.3480   -1.8919 O   0  0  0  0  0  0  0  0  0  0  0  0
    2.3192    4.8457   -0.4787 C   0  0  0  0  0  0  0  0  0  0  0  0
    1.8138    4.2097    1.1612 S   0  0  0  0  0  0  0  0  0  0  0  0
    0.1442    4.9543    1.1627 C   0  0  0  0  0  0  0  0  0  0  0  0
   -7.4211    8.7960   -2.7462 H   0  0  0  0  0  0  0  0  0  0  0  0
   -8.4456    7.3622   -3.1372 H   0  0  0  0  0  0  0  0  0  0  0  0
   -8.9848    8.5322   -1.8696 H   0  0  0  0  0  0  0  0  0  0  0  0
   -7.5127    5.3751   -2.3104 H   0  0  0  0  0  0  0  0  0  0  0  0
   -6.4872    3.9330   -0.8307 H   0  0  0  0  0  0  0  0  0  0  0  0
   -4.8357    6.4182   -0.0487 H   0  0  0  0  0  0  0  0  0  0  0  0
   -4.4037    4.7313    0.2672 H   0  0  0  0  0  0  0  0  0  0  0  0
   -2.8404    3.5255   -3.0046 H   0  0  0  0  0  0  0  0  0  0  0  0
   -4.3267    2.9372   -2.2074 H   0  0  0  0  0  0  0  0  0  0  0  0
   -1.3013    5.0127   -1.1603 H   0  0  0  0  0  0  0  0  0  0  0  0
   -0.7292    2.7182    2.4366 H   0  0  0  0  0  0  0  0  0  0  0  0
   -3.8224    1.6297   -0.3390 H   0  0  0  0  0  0  0  0  0  0  0  0
   -3.4695    0.2386    1.5158 H   0  0  0  0  0  0  0  0  0  0  0  0
   -3.0796    1.2291    2.9625 H   0  0  0  0  0  0  0  0  0  0  0  0
   -1.4225   -0.1945   -0.1151 H   0  0  0  0  0  0  0  0  0  0  0  0
    0.0298   -1.0362    0.4707 H   0  0  0  0  0  0  0  0  0  0  0  0
   -2.8795   -2.0207    0.5310 H   0  0  0  0  0  0  0  0  0  0  0  0
   -0.6415   -2.9565    2.2026 H   0  0  0  0  0  0  0  0  0  0  0  0
   -3.6745   -4.1030    0.3508 H   0  0  0  0  0  0  0  0  0  0  0  0
   -2.7511   -6.9470    1.1464 H   0  0  0  0  0  0  0  0  0  0  0  0
   -3.7453   -6.5036   -0.2915 H   0  0  0  0  0  0  0  0  0  0  0  0
   -2.0401   -5.9625   -0.1881 H   0  0  0  0  0  0  0  0  0  0  0  0
   -4.3757   -5.1939    3.0215 H   0  0  0  0  0  0  0  0  0  0  0  0
   -5.5379   -5.0206   -0.5538 H   0  0  0  0  0  0  0  0  0  0  0  0
   -7.5792   -7.0790    0.5429 H   0  0  0  0  0  0  0  0  0  0  0  0
   -6.9558   -6.9651   -1.1568 H   0  0  0  0  0  0  0  0  0  0  0  0
   -5.8360   -7.4319    0.1772 H   0  0  0  0  0  0  0  0  0  0  0  0
   -7.9065   -3.8033    0.5474 H   0  0  0  0  0  0  0  0  0  0  0  0
   -9.8462   -4.2204   -2.7144 H   0  0  0  0  0  0  0  0  0  0  0  0
   -9.8016   -6.5553   -1.9144 H   0  0  0  0  0  0  0  0  0  0  0  0
  -10.0010   -5.9935   -0.2043 H   0  0  0  0  0  0  0  0  0  0  0  0
  -11.3144   -5.7264   -1.4141 H   0  0  0  0  0  0  0  0  0  0  0  0
  -10.7123   -3.5884    0.0372 H   0  0  0  0  0  0  0  0  0  0  0  0
  -11.4334   -0.1387   -1.3214 H   0  0  0  0  0  0  0  0  0  0  0  0
  -13.1157   -1.9409   -1.7994 H   0  0  0  0  0  0  0  0  0  0  0  0
  -12.8771   -2.6231   -0.1432 H   0  0  0  0  0  0  0  0  0  0  0  0
  -13.5765   -0.9825   -0.3541 H   0  0  0  0  0  0  0  0  0  0  0  0
  -10.5143   -1.4989    1.2065 H   0  0  0  0  0  0  0  0  0  0  0  0
  -12.8493    1.2077   -0.0827 H   0  0  0  0  0  0  0  0  0  0  0  0
  -13.7946    1.8621    2.0832 H   0  0  0  0  0  0  0  0  0  0  0  0
  -12.3448    2.8785    2.4612 H   0  0  0  0  0  0  0  0  0  0  0  0
  -13.4027    3.2922    1.0566 H   0  0  0  0  0  0  0  0  0  0  0  0
  -11.1947    2.5411   -0.9781 H   0  0  0  0  0  0  0  0  0  0  0  0
   -8.8981    3.9581   -0.7664 H   0  0  0  0  0  0  0  0  0  0  0  0
   -9.9846    6.2732   -0.4881 H   0  0  0  0  0  0  0  0  0  0  0  0
  -11.1272    5.5210    0.6921 H   0  0  0  0  0  0  0  0  0  0  0  0
  -11.1113    4.9795   -1.0408 H   0  0  0  0  0  0  0  0  0  0  0  0
   -8.8523    5.1497    2.0445 H   0  0  0  0  0  0  0  0  0  0  0  0
    0.2537   -2.8967   -2.1357 H   0  0  0  0  0  0  0  0  0  0  0  0
    0.2619   -4.4498    0.4822 H   0  0  0  0  0  0  0  0  0  0  0  0
    2.6817   -4.0144    0.6615 H   0  0  0  0  0  0  0  0  0  0  0  0
    2.6329   -2.9832   -0.8253 H   0  0  0  0  0  0  0  0  0  0  0  0
    1.7710   -2.4831    0.6811 H   0  0  0  0  0  0  0  0  0  0  0  0
    3.0930   -5.2425   -1.9589 H   0  0  0  0  0  0  0  0  0  0  0  0
    3.4473   -7.6227   -1.3416 H   0  0  0  0  0  0  0  0  0  0  0  0
    2.3541   -8.6375    0.5931 H   0  0  0  0  0  0  0  0  0  0  0  0
    1.1410   -8.1217   -0.6260 H   0  0  0  0  0  0  0  0  0  0  0  0
    1.3813   -7.1452    0.8783 H   0  0  0  0  0  0  0  0  0  0  0  0
    5.2852   -4.7487    0.0086 H   0  0  0  0  0  0  0  0  0  0  0  0
    7.1063   -5.6830   -1.0281 H   0  0  0  0  0  0  0  0  0  0  0  0
    5.5745   -8.2876   -1.5556 H   0  0  0  0  0  0  0  0  0  0  0  0
    7.0435   -7.6590   -2.3809 H   0  0  0  0  0  0  0  0  0  0  0  0
    5.4819   -6.8043   -2.6031 H   0  0  0  0  0  0  0  0  0  0  0  0
    8.7041   -7.6018    1.7571 H   0  0  0  0  0  0  0  0  0  0  0  0
    8.8130   -5.0694    0.2095 H   0  0  0  0  0  0  0  0  0  0  0  0
    9.0797   -6.7831   -1.6469 H   0  0  0  0  0  0  0  0  0  0  0  0
   10.4273   -7.5480   -0.7405 H   0  0  0  0  0  0  0  0  0  0  0  0
   10.5891   -5.8734   -1.4010 H   0  0  0  0  0  0  0  0  0  0  0  0
   11.7781   -4.3007    2.2258 H   0  0  0  0  0  0  0  0  0  0  0  0
   10.3921   -3.6864   -0.4150 H   0  0  0  0  0  0  0  0  0  0  0  0
   13.4006   -3.5855    0.2477 H   0  0  0  0  0  0  0  0  0  0  0  0
   12.6148   -2.9809   -1.2733 H   0  0  0  0  0  0  0  0  0  0  0  0
   12.5763   -4.7352   -0.8543 H   0  0  0  0  0  0  0  0  0  0  0  0
    8.9699   -1.8307    1.0116 H   0  0  0  0  0  0  0  0  0  0  0  0
    8.5753   -0.1427   -0.5034 H   0  0  0  0  0  0  0  0  0  0  0  0
    9.8078   -1.8241   -1.9682 H   0  0  0  0  0  0  0  0  0  0  0  0
   11.3125   -0.8459   -1.7410 H   0  0  0  0  0  0  0  0  0  0  0  0
    9.8457   -0.1496   -2.5578 H   0  0  0  0  0  0  0  0  0  0  0  0
   10.6051    1.8750   -1.8572 H   0  0  0  0  0  0  0  0  0  0  0  0
   10.2829    4.1106   -1.3592 H   0  0  0  0  0  0  0  0  0  0  0  0
   12.0722    3.2672    0.9908 H   0  0  0  0  0  0  0  0  0  0  0  0
   11.8545    4.9368    0.3396 H   0  0  0  0  0  0  0  0  0  0  0  0
   12.5904    3.6490   -0.6893 H   0  0  0  0  0  0  0  0  0  0  0  0
    7.7058    3.6875   -0.8489 H   0  0  0  0  0  0  0  0  0  0  0  0
    6.6070    5.6494   -0.4846 H   0  0  0  0  0  0  0  0  0  0  0  0
    7.8951    7.6160    0.0697 H   0  0  0  0  0  0  0  0  0  0  0  0
    9.0454    6.4917   -0.6831 H   0  0  0  0  0  0  0  0  0  0  0  0
    9.0316    6.6806    1.1169 H   0  0  0  0  0  0  0  0  0  0  0  0
    5.1018    6.1621    2.8968 H   0  0  0  0  0  0  0  0  0  0  0  0
    5.5887    7.5748    0.2454 H   0  0  0  0  0  0  0  0  0  0  0  0
    5.9780    9.6736    1.4151 H   0  0  0  0  0  0  0  0  0  0  0  0
    5.7102    8.9033    3.0273 H   0  0  0  0  0  0  0  0  0  0  0  0
    7.1542    8.4763    2.0596 H   0  0  0  0  0  0  0  0  0  0  0  0
    1.8402    7.1803    0.9960 H   0  0  0  0  0  0  0  0  0  0  0  0
    4.1896    5.9111   -0.4550 H   0  0  0  0  0  0  0  0  0  0  0  0
    3.5951    8.0341   -3.3646 H   0  0  0  0  0  0  0  0  0  0  0  0
    4.8438    7.3158   -2.2835 H   0  0  0  0  0  0  0  0  0  0  0  0
    2.9696    4.0697   -0.9404 H   0  0  0  0  0  0  0  0  0  0  0  0
    1.4279    4.9067   -1.1440 H   0  0  0  0  0  0  0  0  0  0  0  0
    0.0982    5.8775    0.5496 H   0  0  0  0  0  0  0  0  0  0  0  0
   -0.0962    5.2497    2.1983 H   0  0  0  0  0  0  0  0  0  0  0  0
  1  2  1  0
  2  3  2  0
  2  4  1  0
  4  5  1  0
  5  6  1  0
  6  7  1  0
  7  8  1  0
  8  9  1  0
  9 10  2  0
 10 11  1  0
 11 12  2  0
 12 13  1  0
 13 14  2  0
 13 15  1  0
 15 16  1  0
 16 17  1  0
 17 18  1  0
 18 19  1  0
 19 20  1  0
 20 21  2  0
 20 22  1  0
 22 23  1  0
 22 24  1  0
 24 25  1  0
 25 26  2  0
 25 27  1  0
 27 28  1  0
 27 29  1  0
 29 30  1  0
 30 31  2  0
 30 32  1  0
 32 33  1  0
 32 34  1  0
 34 35  1  0
 35 36  2  0
 35 37  1  0
 37 38  1  0
 37 39  1  0
 39 40  1  0
 40 41  2  0
 40 42  1  0
 42 43  1  0
 42 44  1  0
 44 45  1  0
 45 46  2  0
 45 47  1  0
 47 48  1  0
 47 49  1  0
 49 50  1  0
 50 51  2  0
 18 52  1  0
 52 53  2  0
 52 54  1  0
 54 55  1  0
 55 56  1  0
 55 57  1  0
 57 58  2  0
 57 59  1  0
 59 60  1  0
 60 61  1  0
 60 62  1  0
 62 63  2  0
 62 64  1  0
 64 65  1  0
 65 66  1  0
 65 67  1  0
 67 68  2  0
 67 69  1  0
 69 70  1  0
 70 71  1  0
 70 72  1  0
 72 73  2  0
 72 74  1  0
 74 75  1  0
 75 76  1  0
 75 77  1  0
 77 78  2  0
 77 79  1  0
 79 80  1  0
 80 81  1  0
 80 82  1  0
 82 83  2  0
 82 84  1  0
 84 85  1  0
 85 86  1  0
 85 87  1  0
 87 88  2  0
 87 89  1  0
 89 90  1  0
 90 91  1  0
 90 92  1  0
 92 93  2  0
 92 94  1  0
 94 95  1  0
 95 96  1  0
 95 97  1  0
 97 98  2  0
 97 99  1  0
 99100  1  0
100101  1  0
101102  1  0
101103  2  0
100104  1  0
104105  1  0
105106  1  0
 50  5  1  0
 14  9  1  0
106 11  1  0
  1107  1  0
  1108  1  0
  1109  1  0
  4110  1  0
  5111  1  6
  6112  1  0
  6113  1  0
  8114  1  0
  8115  1  0
 10116  1  0
 12117  1  0
 14118  1  0
 15119  1  0
 15120  1  0
 17121  1  0
 17122  1  0
 18123  1  6
 19124  1  0
 22125  1  6
 23126  1  0
 23127  1  0
 23128  1  0
 24129  1  0
 27130  1  6
 28131  1  0
 28132  1  0
 28133  1  0
 29134  1  0
 32135  1  6
 33136  1  0
 33137  1  0
 33138  1  0
 34139  1  0
 37140  1  6
 38141  1  0
 38142  1  0
 38143  1  0
 39144  1  0
 42145  1  6
 43146  1  0
 43147  1  0
 43148  1  0
 44149  1  0
 47150  1  6
 48151  1  0
 48152  1  0
 48153  1  0
 49154  1  0
 54155  1  0
 55156  1  1
 56157  1  0
 56158  1  0
 56159  1  0
 59160  1  0
 60161  1  6
 61162  1  0
 61163  1  0
 61164  1  0
 64165  1  0
 65166  1  6
 66167  1  0
 66168  1  0
 66169  1  0
 69170  1  0
 70171  1  6
 71172  1  0
 71173  1  0
 71174  1  0
 74175  1  0
 75176  1  6
 76177  1  0
 76178  1  0
 76179  1  0
 79180  1  0
 80181  1  6
 81182  1  0
 81183  1  0
 81184  1  0
 84185  1  0
 85186  1  6
 86187  1  0
 86188  1  0
 86189  1  0
 89190  1  0
 90191  1  6
 91192  1  0
 91193  1  0
 91194  1  0
 94195  1  0
 95196  1  6
 96197  1  0
 96198  1  0
 96199  1  0
 99200  1  0
100201  1  6
102202  1  0
102203  1  0
104204  1  0
104205  1  0
106206  1  0
106207  1  0
M  END
