
     RDKit          3D

207209  0  0  0  0  0  0  0  0999 V2000
   -6.1174    6.1266   -3.0593 C   0  0  0  0  0  0  0  0  0  0  0  0
   -5.8579    6.7368   -1.7184 C   0  0  0  0  0  0  0  0  0  0  0  0
   -4.8659    7.5025   -1.5462 O   0  0  0  0  0  0  0  0  0  0  0  0
   -6.6651    6.3643   -0.5946 N   0  0  0  0  0  0  0  0  0  0  0  0
   -6.1569    5.4669    0.4664 C   0  0  2  0  0  0  0  0  0  0  0  0
   -5.2351    4.3565   -0.0844 C   0  0  0  0  0  0  0  0  0  0  0  0
   -3.4953    4.8670    0.0428 S   0  0  0  0  0  0  0  0  0  0  0  0
   -3.2859    4.4787    1.8380 C   0  0  0  0  0  0  0  0  0  0  0  0
   -2.2397    3.3919    1.9384 C   0  0  0  0  0  0  0  0  0  0  0  0
   -0.9153    3.7729    2.0893 C   0  0  0  0  0  0  0  0  0  0  0  0
    0.0356    3.3226    1.1659 C   0  0  0  0  0  0  0  0  0  0  0  0
   -0.3076    2.2629    0.3053 C   0  0  0  0  0  0  0  0  0  0  0  0
   -1.5507    1.6234    0.4318 C   0  0  0  0  0  0  0  0  0  0  0  0
   -2.5044    2.1712    1.3091 C   0  0  0  0  0  0  0  0  0  0  0  0
   -1.9209    0.5115   -0.5030 C   0  0  0  0  0  0  0  0  0  0  0  0
   -0.9971   -1.0197   -0.1063 S   0  0  0  0  0  0  0  0  0  0  0  0
   -1.7960   -1.3289    1.5308 C   0  0  0  0  0  0  0  0  0  0  0  0
   -2.0343   -2.8452    1.6851 C   0  0  2  0  0  0  0  0  0  0  0  0
   -3.0952   -3.0769    2.6864 N   0  0  0  0  0  0  0  0  0  0  0  0
   -4.2362   -3.9835    2.6301 C   0  0  0  0  0  0  0  0  0  0  0  0
   -4.6522   -4.4602    3.7343 O   0  0  0  0  0  0  0  0  0  0  0  0
   -5.0236   -4.3801    1.3578 C   0  0  1  0  0  0  0  0  0  0  0  0
   -4.7568   -3.6679    0.0369 C   0  0  0  0  0  0  0  0  0  0  0  0
   -5.0119   -5.8533    1.2508 N   0  0  0  0  0  0  0  0  0  0  0  0
   -5.6666   -6.5954    0.2213 C   0  0  0  0  0  0  0  0  0  0  0  0
   -4.9696   -7.3190   -0.5450 O   0  0  0  0  0  0  0  0  0  0  0  0
   -7.1874   -6.6212    0.0553 C   0  0  1  0  0  0  0  0  0  0  0  0
   -7.6390   -8.0925    0.0222 C   0  0  0  0  0  0  0  0  0  0  0  0
   -7.8932   -5.9142    1.1353 N   0  0  0  0  0  0  0  0  0  0  0  0
   -9.2534   -5.4634    1.0668 C   0  0  0  0  0  0  0  0  0  0  0  0
   -9.8874   -5.3030    2.1404 O   0  0  0  0  0  0  0  0  0  0  0  0
   -9.9701   -5.1702   -0.2528 C   0  0  1  0  0  0  0  0  0  0  0  0
  -10.3716   -6.4547   -0.9964 C   0  0  0  0  0  0  0  0  0  0  0  0
  -11.1937   -4.4054    0.0146 N   0  0  0  0  0  0  0  0  0  0  0  0
  -11.3840   -3.0382   -0.3369 C   0  0  0  0  0  0  0  0  0  0  0  0
  -12.4957   -2.6825   -0.8292 O   0  0  0  0  0  0  0  0  0  0  0  0
  -10.3414   -1.9920   -0.0411 C   0  0  1  0  0  0  0  0  0  0  0  0
   -9.7268   -1.4793   -1.3537 C   0  0  0  0  0  0  0  0  0  0  0  0
  -10.9831   -0.9195    0.7317 N   0  0  0  0  0  0  0  0  0  0  0  0
  -10.4712    0.4030    0.8303 C   0  0  0  0  0  0  0  0  0  0  0  0
   -9.7137    0.6851    1.8102 O   0  0  0  0  0  0  0  0  0  0  0  0
  -10.9016    1.4821   -0.1328 C   0  0  1  0  0  0  0  0  0  0  0  0
  -12.3080    1.2437   -0.6787 C   0  0  0  0  0  0  0  0  0  0  0  0
  -10.8735    2.7955    0.5388 N   0  0  0  0  0  0  0  0  0  0  0  0
  -10.7453    4.0250   -0.1688 C   0  0  0  0  0  0  0  0  0  0  0  0
  -11.7103    4.4283   -0.8822 O   0  0  0  0  0  0  0  0  0  0  0  0
   -9.6289    4.9783    0.1697 C   0  0  1  0  0  0  0  0  0  0  0  0
  -10.0541    5.7893    1.4068 C   0  0  0  0  0  0  0  0  0  0  0  0
   -8.3763    4.2513    0.4003 N   0  0  0  0  0  0  0  0  0  0  0  0
   -7.3005    4.7898    1.1600 C   0  0  0  0  0  0  0  0  0  0  0  0
   -7.2072    4.5175    2.3895 O   0  0  0  0  0  0  0  0  0  0  0  0
   -0.7500   -3.5996    2.0699 C   0  0  0  0  0  0  0  0  0  0  0  0
    0.2288   -3.0073    2.5974 O   0  0  0  0  0  0  0  0  0  0  0  0
   -0.5735   -4.9499    1.6176 N   0  0  0  0  0  0  0  0  0  0  0  0
    0.3624   -5.2371    0.5002 C   0  0  2  0  0  0  0  0  0  0  0  0
   -0.4634   -5.2005   -0.8198 C   0  0  0  0  0  0  0  0  0  0  0  0
    0.9814   -6.6255    0.6132 C   0  0  0  0  0  0  0  0  0  0  0  0
    0.9307   -7.3062    1.6834 O   0  0  0  0  0  0  0  0  0  0  0  0
    1.5474   -7.2066   -0.5697 N   0  0  0  0  0  0  0  0  0  0  0  0
    2.5732   -6.4990   -1.3373 C   0  0  2  0  0  0  0  0  0  0  0  0
    2.3457   -6.6139   -2.8524 C   0  0  0  0  0  0  0  0  0  0  0  0
    3.9419   -7.0385   -0.9770 C   0  0  0  0  0  0  0  0  0  0  0  0
    4.1018   -8.2740   -0.7211 O   0  0  0  0  0  0  0  0  0  0  0  0
    5.0485   -6.1401   -1.0313 N   0  0  0  0  0  0  0  0  0  0  0  0
    5.8350   -5.7372    0.1529 C   0  0  2  0  0  0  0  0  0  0  0  0
    4.9129   -5.5565    1.3640 C   0  0  0  0  0  0  0  0  0  0  0  0
    6.5563   -4.4188   -0.0937 C   0  0  0  0  0  0  0  0  0  0  0  0
    5.8888   -3.3966   -0.3880 O   0  0  0  0  0  0  0  0  0  0  0  0
    7.9623   -4.3024    0.1198 N   0  0  0  0  0  0  0  0  0  0  0  0
    8.9539   -5.0760   -0.6289 C   0  0  2  0  0  0  0  0  0  0  0  0
    9.6383   -6.0972    0.3089 C   0  0  0  0  0  0  0  0  0  0  0  0
    9.9907   -4.1687   -1.2947 C   0  0  0  0  0  0  0  0  0  0  0  0
   10.8367   -4.6783   -2.0738 O   0  0  0  0  0  0  0  0  0  0  0  0
    9.9712   -2.7392   -1.1227 N   0  0  0  0  0  0  0  0  0  0  0  0
   10.9421   -2.0005   -0.2933 C   0  0  2  0  0  0  0  0  0  0  0  0
   11.5380   -2.8846    0.8213 C   0  0  0  0  0  0  0  0  0  0  0  0
   10.2794   -0.7967    0.3403 C   0  0  0  0  0  0  0  0  0  0  0  0
    9.0353   -0.6254    0.2192 O   0  0  0  0  0  0  0  0  0  0  0  0
   11.0244    0.0947    1.1676 N   0  0  0  0  0  0  0  0  0  0  0  0
   12.1091    0.9587    0.6797 C   0  0  2  0  0  0  0  0  0  0  0  0
   13.4617    0.2255    0.7501 C   0  0  0  0  0  0  0  0  0  0  0  0
   12.1715    2.2135    1.5298 C   0  0  0  0  0  0  0  0  0  0  0  0
   12.7108    2.1435    2.6761 O   0  0  0  0  0  0  0  0  0  0  0  0
   11.5207    3.4358    1.1535 N   0  0  0  0  0  0  0  0  0  0  0  0
   11.4549    3.9669   -0.2220 C   0  0  2  0  0  0  0  0  0  0  0  0
   11.8150    5.4622   -0.2060 C   0  0  0  0  0  0  0  0  0  0  0  0
   10.1009    3.6619   -0.8420 C   0  0  0  0  0  0  0  0  0  0  0  0
    9.8130    2.4455   -1.0576 O   0  0  0  0  0  0  0  0  0  0  0  0
    9.1791    4.6542   -1.3266 N   0  0  0  0  0  0  0  0  0  0  0  0
    8.5625    5.7374   -0.5239 C   0  0  2  0  0  0  0  0  0  0  0  0
    8.1214    5.1984    0.8495 C   0  0  0  0  0  0  0  0  0  0  0  0
    7.4185    6.3700   -1.2833 C   0  0  0  0  0  0  0  0  0  0  0  0
    7.6386    6.8305   -2.4435 O   0  0  0  0  0  0  0  0  0  0  0  0
    6.1365    6.5476   -0.6871 N   0  0  0  0  0  0  0  0  0  0  0  0
    4.8694    5.9634   -1.1787 C   0  0  2  0  0  0  0  0  0  0  0  0
    5.0464    4.4814   -1.5613 C   0  0  0  0  0  0  0  0  0  0  0  0
    4.3314    6.7242   -2.3693 C   0  0  0  0  0  0  0  0  0  0  0  0
    5.1229    6.9954   -3.3262 O   0  0  0  0  0  0  0  0  0  0  0  0
    2.9378    7.0641   -2.5448 N   0  0  0  0  0  0  0  0  0  0  0  0
    1.9553    7.3504   -1.4864 C   0  0  2  0  0  0  0  0  0  0  0  0
    2.4992    8.2724   -0.3969 C   0  0  0  0  0  0  0  0  0  0  0  0
    1.6404    8.7451    0.6308 N   0  0  0  0  0  0  0  0  0  0  0  0
    3.6925    8.6912   -0.4572 O   0  0  0  0  0  0  0  0  0  0  0  0
    1.2787    6.0050   -1.0157 C   0  0  0  0  0  0  0  0  0  0  0  0
    1.0990    5.8462    0.8167 S   0  0  0  0  0  0  0  0  0  0  0  0
    1.3475    4.0485    1.0229 C   0  0  0  0  0  0  0  0  0  0  0  0
   -5.7376    6.8018   -3.8586 H   0  0  0  0  0  0  0  0  0  0  0  0
   -7.2153    5.9354   -3.1679 H   0  0  0  0  0  0  0  0  0  0  0  0
   -5.5753    5.1612   -3.1319 H   0  0  0  0  0  0  0  0  0  0  0  0
   -7.3217    7.1283   -0.2902 H   0  0  0  0  0  0  0  0  0  0  0  0
   -5.6186    6.0910    1.2079 H   0  0  0  0  0  0  0  0  0  0  0  0
   -5.3849    3.3828    0.4339 H   0  0  0  0  0  0  0  0  0  0  0  0
   -5.4800    4.1091   -1.1347 H   0  0  0  0  0  0  0  0  0  0  0  0
   -2.8872    5.4305    2.2825 H   0  0  0  0  0  0  0  0  0  0  0  0
   -4.2096    4.1695    2.3782 H   0  0  0  0  0  0  0  0  0  0  0  0
   -0.6954    4.6027    2.7345 H   0  0  0  0  0  0  0  0  0  0  0  0
    0.3607    1.9861   -0.4961 H   0  0  0  0  0  0  0  0  0  0  0  0
   -3.5186    1.8072    1.2678 H   0  0  0  0  0  0  0  0  0  0  0  0
   -1.6872    0.8125   -1.5527 H   0  0  0  0  0  0  0  0  0  0  0  0
   -2.9947    0.3145   -0.4818 H   0  0  0  0  0  0  0  0  0  0  0  0
   -1.1701   -0.9323    2.3414 H   0  0  0  0  0  0  0  0  0  0  0  0
   -2.7912   -0.8264    1.5985 H   0  0  0  0  0  0  0  0  0  0  0  0
   -2.3357   -3.2422    0.7167 H   0  0  0  0  0  0  0  0  0  0  0  0
   -2.8726   -2.6884    3.6304 H   0  0  0  0  0  0  0  0  0  0  0  0
   -6.0846   -4.0556    1.5952 H   0  0  0  0  0  0  0  0  0  0  0  0
   -5.4687   -4.1038   -0.7173 H   0  0  0  0  0  0  0  0  0  0  0  0
   -3.8533   -4.0452   -0.4441 H   0  0  0  0  0  0  0  0  0  0  0  0
   -4.7665   -2.5580    0.1338 H   0  0  0  0  0  0  0  0  0  0  0  0
   -4.2578   -6.3731    1.7786 H   0  0  0  0  0  0  0  0  0  0  0  0
   -7.4299   -6.1302   -0.9255 H   0  0  0  0  0  0  0  0  0  0  0  0
   -6.9688   -8.7381    0.6279 H   0  0  0  0  0  0  0  0  0  0  0  0
   -7.6358   -8.4716   -1.0195 H   0  0  0  0  0  0  0  0  0  0  0  0
   -8.6623   -8.2151    0.4234 H   0  0  0  0  0  0  0  0  0  0  0  0
   -7.5019   -6.0176    2.1032 H   0  0  0  0  0  0  0  0  0  0  0  0
   -9.2908   -4.5705   -0.9038 H   0  0  0  0  0  0  0  0  0  0  0  0
   -9.5434   -6.8286   -1.6326 H   0  0  0  0  0  0  0  0  0  0  0  0
  -10.7041   -7.2402   -0.2807 H   0  0  0  0  0  0  0  0  0  0  0  0
  -11.2330   -6.2474   -1.6738 H   0  0  0  0  0  0  0  0  0  0  0  0
  -12.0385   -4.9258    0.3569 H   0  0  0  0  0  0  0  0  0  0  0  0
   -9.5388   -2.4309    0.5804 H   0  0  0  0  0  0  0  0  0  0  0  0
   -8.9085   -0.7566   -1.1323 H   0  0  0  0  0  0  0  0  0  0  0  0
   -9.2847   -2.3254   -1.9220 H   0  0  0  0  0  0  0  0  0  0  0  0
  -10.4938   -0.9846   -1.9817 H   0  0  0  0  0  0  0  0  0  0  0  0
  -11.5883   -1.2207    1.5283 H   0  0  0  0  0  0  0  0  0  0  0  0
  -10.1773    1.5032   -0.9887 H   0  0  0  0  0  0  0  0  0  0  0  0
  -12.5398    1.9892   -1.4668 H   0  0  0  0  0  0  0  0  0  0  0  0
  -13.0579    1.3493    0.1411 H   0  0  0  0  0  0  0  0  0  0  0  0
  -12.4017    0.2370   -1.1334 H   0  0  0  0  0  0  0  0  0  0  0  0
  -11.3657    2.8560    1.4681 H   0  0  0  0  0  0  0  0  0  0  0  0
   -9.4861    5.6789   -0.6798 H   0  0  0  0  0  0  0  0  0  0  0  0
  -11.0458    6.2561    1.2360 H   0  0  0  0  0  0  0  0  0  0  0  0
   -9.3127    6.5903    1.6373 H   0  0  0  0  0  0  0  0  0  0  0  0
  -10.1514    5.1162    2.2966 H   0  0  0  0  0  0  0  0  0  0  0  0
   -8.2995    3.2361    0.1464 H   0  0  0  0  0  0  0  0  0  0  0  0
   -1.4991   -5.3959    1.4688 H   0  0  0  0  0  0  0  0  0  0  0  0
    1.1575   -4.4495    0.4331 H   0  0  0  0  0  0  0  0  0  0  0  0
   -0.7919   -4.1674   -1.1199 H   0  0  0  0  0  0  0  0  0  0  0  0
   -0.0498   -5.7495   -1.7233 H   0  0  0  0  0  0  0  0  0  0  0  0
   -1.2923   -5.9190   -0.6155 H   0  0  0  0  0  0  0  0  0  0  0  0
    1.1018   -8.0894   -0.9219 H   0  0  0  0  0  0  0  0  0  0  0  0
    2.5804   -5.4157   -1.0587 H   0  0  0  0  0  0  0  0  0  0  0  0
    1.7789   -7.5262   -3.1365 H   0  0  0  0  0  0  0  0  0  0  0  0
    1.7740   -5.7182   -3.2017 H   0  0  0  0  0  0  0  0  0  0  0  0
    3.3039   -6.6033   -3.4123 H   0  0  0  0  0  0  0  0  0  0  0  0
    5.2476   -5.6934   -1.9607 H   0  0  0  0  0  0  0  0  0  0  0  0
    6.5703   -6.5358    0.3813 H   0  0  0  0  0  0  0  0  0  0  0  0
    5.5030   -5.2287    2.2501 H   0  0  0  0  0  0  0  0  0  0  0  0
    4.4132   -6.5064    1.6162 H   0  0  0  0  0  0  0  0  0  0  0  0
    4.1327   -4.7871    1.1484 H   0  0  0  0  0  0  0  0  0  0  0  0
    8.2750   -3.4537    0.6644 H   0  0  0  0  0  0  0  0  0  0  0  0
    8.4521   -5.6371   -1.4487 H   0  0  0  0  0  0  0  0  0  0  0  0
   10.7481   -6.0908    0.2187 H   0  0  0  0  0  0  0  0  0  0  0  0
    9.3760   -5.9028    1.3786 H   0  0  0  0  0  0  0  0  0  0  0  0
    9.2876   -7.1225    0.0576 H   0  0  0  0  0  0  0  0  0  0  0  0
    9.5097   -2.2027   -1.9006 H   0  0  0  0  0  0  0  0  0  0  0  0
   11.7642   -1.6593   -0.9562 H   0  0  0  0  0  0  0  0  0  0  0  0
   12.2818   -2.3204    1.4032 H   0  0  0  0  0  0  0  0  0  0  0  0
   10.7288   -3.2392    1.5048 H   0  0  0  0  0  0  0  0  0  0  0  0
   12.0607   -3.7586    0.3754 H   0  0  0  0  0  0  0  0  0  0  0  0
   10.5350    0.3950    2.0447 H   0  0  0  0  0  0  0  0  0  0  0  0
   11.9194    1.2156   -0.3893 H   0  0  0  0  0  0  0  0  0  0  0  0
   13.5607   -0.5105   -0.0733 H   0  0  0  0  0  0  0  0  0  0  0  0
   13.5651   -0.3052    1.7232 H   0  0  0  0  0  0  0  0  0  0  0  0
   14.3031    0.9485    0.6546 H   0  0  0  0  0  0  0  0  0  0  0  0
   11.3340    4.0977    1.9356 H   0  0  0  0  0  0  0  0  0  0  0  0
   12.2186    3.4772   -0.8539 H   0  0  0  0  0  0  0  0  0  0  0  0
   11.2598    5.9970    0.5949 H   0  0  0  0  0  0  0  0  0  0  0  0
   12.8975    5.5735   -0.0017 H   0  0  0  0  0  0  0  0  0  0  0  0
   11.5943    5.9383   -1.1947 H   0  0  0  0  0  0  0  0  0  0  0  0
    8.7666    4.4441   -2.2642 H   0  0  0  0  0  0  0  0  0  0  0  0
    9.2897    6.5389   -0.3735 H   0  0  0  0  0  0  0  0  0  0  0  0
    9.0048    4.8671    1.4269 H   0  0  0  0  0  0  0  0  0  0  0  0
    7.3979    4.3638    0.7303 H   0  0  0  0  0  0  0  0  0  0  0  0
    7.6404    6.0169    1.4236 H   0  0  0  0  0  0  0  0  0  0  0  0
    6.0291    7.4073   -0.0962 H   0  0  0  0  0  0  0  0  0  0  0  0
    4.1385    5.9813   -0.3279 H   0  0  0  0  0  0  0  0  0  0  0  0
    4.0805    4.0679   -1.9214 H   0  0  0  0  0  0  0  0  0  0  0  0
    5.7803    4.3759   -2.3818 H   0  0  0  0  0  0  0  0  0  0  0  0
    5.3717    3.8852   -0.6835 H   0  0  0  0  0  0  0  0  0  0  0  0
    2.6228    7.1950   -3.5415 H   0  0  0  0  0  0  0  0  0  0  0  0
    1.1535    7.9602   -1.9649 H   0  0  0  0  0  0  0  0  0  0  0  0
    2.0049    8.8853    1.6064 H   0  0  0  0  0  0  0  0  0  0  0  0
    0.6030    8.8270    0.4455 H   0  0  0  0  0  0  0  0  0  0  0  0
    0.2661    5.9622   -1.4921 H   0  0  0  0  0  0  0  0  0  0  0  0
    1.8296    5.1259   -1.4240 H   0  0  0  0  0  0  0  0  0  0  0  0
    1.9697    3.6378    0.2012 H   0  0  0  0  0  0  0  0  0  0  0  0
    1.9404    3.9513    1.9506 H   0  0  0  0  0  0  0  0  0  0  0  0
  1  2  1  0
  2  3  2  0
  2  4  1  0
  4  5  1  0
  5  6  1  0
  6  7  1  0
  7  8  1  0
  8  9  1  0
  9 10  2  0
 10 11  1  0
 11 12  2  0
 12 13  1  0
 13 14  2  0
 13 15  1  0
 15 16  1  0
 16 17  1  0
 17 18  1  0
 18 19  1  0
 19 20  1  0
 20 21  2  0
 20 22  1  0
 22 23  1  0
 22 24  1  0
 24 25  1  0
 25 26  2  0
 25 27  1  0
 27 28  1  0
 27 29  1  0
 29 30  1  0
 30 31  2  0
 30 32  1  0
 32 33  1  0
 32 34  1  0
 34 35  1  0
 35 36  2  0
 35 37  1  0
 37 38  1  0
 37 39  1  0
 39 40  1  0
 40 41  2  0
 40 42  1  0
 42 43  1  0
 42 44  1  0
 44 45  1  0
 45 46  2  0
 45 47  1  0
 47 48  1  0
 47 49  1  0
 49 50  1  0
 50 51  2  0
 18 52  1  0
 52 53  2  0
 52 54  1  0
 54 55  1  0
 55 56  1  0
 55 57  1  0
 57 58  2  0
 57 59  1  0
 59 60  1  0
 60 61  1  0
 60 62  1  0
 62 63  2  0
 62 64  1  0
 64 65  1  0
 65 66  1  0
 65 67  1  0
 67 68  2  0
 67 69  1  0
 69 70  1  0
 70 71  1  0
 70 72  1  0
 72 73  2  0
 72 74  1  0
 74 75  1  0
 75 76  1  0
 75 77  1  0
 77 78  2  0
 77 79  1  0
 79 80  1  0
 80 81  1  0
 80 82  1  0
 82 83  2  0
 82 84  1  0
 84 85  1  0
 85 86  1  0
 85 87  1  0
 87 88  2  0
 87 89  1  0
 89 90  1  0
 90 91  1  0
 90 92  1  0
 92 93  2  0
 92 94  1  0
 94 95  1  0
 95 96  1  0
 95 97  1  0
 97 98  2  0
 97 99  1  0
 99100  1  0
100101  1  0
101102  1  0
101103  2  0
100104  1  0
104105  1  0
105106  1  0
 50  5  1  0
 14  9  1  0
106 11  1  0
  1107  1  0
  1108  1  0
  1109  1  0
  4110  1  0
  5111  1  1
  6112  1  0
  6113  1  0
  8114  1  0
  8115  1  0
 10116  1  0
 12117  1  0
 14118  1  0
 15119  1  0
 15120  1  0
 17121  1  0
 17122  1  0
 18123  1  6
 19124  1  0
 22125  1  1
 23126  1  0
 23127  1  0
 23128  1  0
 24129  1  0
 27130  1  6
 28131  1  0
 28132  1  0
 28133  1  0
 29134  1  0
 32135  1  6
 33136  1  0
 33137  1  0
 33138  1  0
 34139  1  0
 37140  1  1
 38141  1  0
 38142  1  0
 38143  1  0
 39144  1  0
 42145  1  6
 43146  1  0
 43147  1  0
 43148  1  0
 44149  1  0
 47150  1  6
 48151  1  0
 48152  1  0
 48153  1  0
 49154  1  0
 54155  1  0
 55156  1  6
 56157  1  0
 56158  1  0
 56159  1  0
 59160  1  0
 60161  1  1
 61162  1  0
 61163  1  0
 61164  1  0
 64165  1  0
 65166  1  1
 66167  1  0
 66168  1  0
 66169  1  0
 69170  1  0
 70171  1  6
 71172  1  0
 71173  1  0
 71174  1  0
 74175  1  0
 75176  1  6
 76177  1  0
 76178  1  0
 76179  1  0
 79180  1  0
 80181  1  6
 81182  1  0
 81183  1  0
 81184  1  0
 84185  1  0
 85186  1  6
 86187  1  0
 86188  1  0
 86189  1  0
 89190  1  0
 90191  1  1
 91192  1  0
 91193  1  0
 91194  1  0
 94195  1  0
 95196  1  1
 96197  1  0
 96198  1  0
 96199  1  0
 99200  1  0
100201  1  6
102202  1  0
102203  1  0
104204  1  0
104205  1  0
106206  1  0
106207  1  0
M  END
