
     RDKit          3D

197199  0  0  0  0  0  0  0  0999 V2000
   -4.9044    7.5101    2.4604 C   0  0  0  0  0  0  0  0  0  0  0  0
   -5.5687    6.8024    1.3232 C   0  0  0  0  0  0  0  0  0  0  0  0
   -5.4958    7.3018    0.1666 O   0  0  0  0  0  0  0  0  0  0  0  0
   -6.2613    5.5600    1.5396 N   0  0  0  0  0  0  0  0  0  0  0  0
   -6.8359    4.7861    0.4313 C   0  0  1  0  0  0  0  0  0  0  0  0
   -5.7614    3.8973   -0.2251 C   0  0  0  0  0  0  0  0  0  0  0  0
   -5.0762    2.6365    0.9129 S   0  0  0  0  0  0  0  0  0  0  0  0
   -3.6476    3.5940    1.5533 C   0  0  0  0  0  0  0  0  0  0  0  0
   -2.3413    3.0162    1.0737 C   0  0  0  0  0  0  0  0  0  0  0  0
   -1.3807    3.8367    0.4608 C   0  0  0  0  0  0  0  0  0  0  0  0
   -0.1413    3.3028    0.0625 C   0  0  0  0  0  0  0  0  0  0  0  0
    0.1276    1.9448    0.2745 C   0  0  0  0  0  0  0  0  0  0  0  0
   -0.8227    1.1235    0.8976 C   0  0  0  0  0  0  0  0  0  0  0  0
   -2.0468    1.6630    1.3062 C   0  0  0  0  0  0  0  0  0  0  0  0
   -0.5350   -0.3341    1.1008 C   0  0  0  0  0  0  0  0  0  0  0  0
   -1.0533   -1.2659   -0.3848 S   0  0  0  0  0  0  0  0  0  0  0  0
   -2.3987   -2.2491    0.3831 C   0  0  0  0  0  0  0  0  0  0  0  0
   -1.8902   -3.6426    0.7761 C   0  0  2  0  0  0  0  0  0  0  0  0
   -3.0196   -4.4875    1.1831 N   0  0  0  0  0  0  0  0  0  0  0  0
   -3.5668   -5.5681    0.4088 C   0  0  0  0  0  0  0  0  0  0  0  0
   -4.3372   -6.3859    0.9858 O   0  0  0  0  0  0  0  0  0  0  0  0
   -3.2891   -5.7220   -1.0740 C   0  0  1  0  0  0  0  0  0  0  0  0
   -3.8916   -7.0076   -1.6670 C   0  0  0  0  0  0  0  0  0  0  0  0
   -3.7446   -4.5487   -1.8307 N   0  0  0  0  0  0  0  0  0  0  0  0
   -5.1270   -4.2042   -2.0283 C   0  0  0  0  0  0  0  0  0  0  0  0
   -5.5766   -4.1506   -3.2050 O   0  0  0  0  0  0  0  0  0  0  0  0
   -6.0252   -3.8353   -0.8755 C   0  0  1  0  0  0  0  0  0  0  0  0
   -6.5761   -2.4121   -1.0602 C   0  0  0  0  0  0  0  0  0  0  0  0
   -7.0870   -4.8349   -0.7224 N   0  0  0  0  0  0  0  0  0  0  0  0
   -8.3972   -4.6977   -1.2845 C   0  0  0  0  0  0  0  0  0  0  0  0
   -8.5903   -5.0298   -2.4867 O   0  0  0  0  0  0  0  0  0  0  0  0
   -9.5326   -4.1175   -0.4711 C   0  0  1  0  0  0  0  0  0  0  0  0
  -10.7898   -4.9869   -0.5795 C   0  0  0  0  0  0  0  0  0  0  0  0
   -9.1481   -4.0091    0.9414 N   0  0  0  0  0  0  0  0  0  0  0  0
   -9.2402   -2.8063    1.7183 C   0  0  0  0  0  0  0  0  0  0  0  0
   -8.4236   -2.6338    2.6640 O   0  0  0  0  0  0  0  0  0  0  0  0
  -10.3451   -1.7948    1.5133 C   0  0  1  0  0  0  0  0  0  0  0  0
  -11.2842   -1.8031    2.7239 C   0  0  0  0  0  0  0  0  0  0  0  0
   -9.7739   -0.4598    1.3228 N   0  0  0  0  0  0  0  0  0  0  0  0
  -10.4793    0.5481    0.5947 C   0  0  0  0  0  0  0  0  0  0  0  0
  -11.5511    1.0201    1.0684 O   0  0  0  0  0  0  0  0  0  0  0  0
   -9.9253    1.0635   -0.7091 C   0  0  1  0  0  0  0  0  0  0  0  0
   -9.7824   -0.0887   -1.7020 C   0  0  0  0  0  0  0  0  0  0  0  0
  -10.8124    2.0826   -1.2764 N   0  0  0  0  0  0  0  0  0  0  0  0
  -10.3186    3.2608   -1.9339 C   0  0  0  0  0  0  0  0  0  0  0  0
  -10.6568    3.4660   -3.1352 O   0  0  0  0  0  0  0  0  0  0  0  0
   -9.4125    4.2568   -1.2415 C   0  0  1  0  0  0  0  0  0  0  0  0
   -9.9673    5.6800   -1.4065 C   0  0  0  0  0  0  0  0  0  0  0  0
   -9.2824    3.9682    0.1897 N   0  0  0  0  0  0  0  0  0  0  0  0
   -8.0327    3.9738    0.9020 C   0  0  0  0  0  0  0  0  0  0  0  0
   -7.9514    3.3197    1.9775 O   0  0  0  0  0  0  0  0  0  0  0  0
   -0.9021   -3.5455    1.9224 C   0  0  0  0  0  0  0  0  0  0  0  0
   -1.3265   -3.1873    3.0561 O   0  0  0  0  0  0  0  0  0  0  0  0
    0.5065   -3.8055    1.7688 N   0  0  0  0  0  0  0  0  0  0  0  0
    1.1402   -4.3495    0.5621 C   0  0  2  0  0  0  0  0  0  0  0  0
    0.8025   -5.8382    0.4360 C   0  0  0  0  0  0  0  0  0  0  0  0
    2.6334   -4.0888    0.6067 C   0  0  0  0  0  0  0  0  0  0  0  0
    3.0458   -2.9092    0.7718 O   0  0  0  0  0  0  0  0  0  0  0  0
    3.5885   -5.1496    0.4861 N   0  0  0  0  0  0  0  0  0  0  0  0
    3.9255   -5.7184   -0.8203 C   0  0  2  0  0  0  0  0  0  0  0  0
    3.9587   -7.2471   -0.7279 C   0  0  0  0  0  0  0  0  0  0  0  0
    5.2644   -5.1998   -1.2930 C   0  0  0  0  0  0  0  0  0  0  0  0
    5.3419   -4.5948   -2.3947 O   0  0  0  0  0  0  0  0  0  0  0  0
    6.4495   -5.4493   -0.5217 N   0  0  0  0  0  0  0  0  0  0  0  0
    7.7975   -5.3187   -1.0812 C   0  0  2  0  0  0  0  0  0  0  0  0
    8.1002   -6.5198   -1.9842 C   0  0  0  0  0  0  0  0  0  0  0  0
    8.8055   -5.2513    0.0477 C   0  0  0  0  0  0  0  0  0  0  0  0
    8.9248   -6.2529    0.8051 O   0  0  0  0  0  0  0  0  0  0  0  0
    9.5858   -4.0808    0.3376 N   0  0  0  0  0  0  0  0  0  0  0  0
    9.8601   -2.9759   -0.5919 C   0  0  2  0  0  0  0  0  0  0  0  0
   10.8656   -3.4448   -1.6554 C   0  0  0  0  0  0  0  0  0  0  0  0
   10.3625   -1.7901    0.1942 C   0  0  0  0  0  0  0  0  0  0  0  0
   11.5295   -1.3468    0.0152 O   0  0  0  0  0  0  0  0  0  0  0  0
    9.5584   -1.2152    1.2377 N   0  0  0  0  0  0  0  0  0  0  0  0
    8.2355   -0.6130    1.0231 C   0  0  2  0  0  0  0  0  0  0  0  0
    7.1345   -1.6859    1.0425 C   0  0  0  0  0  0  0  0  0  0  0  0
    8.2212    0.2503   -0.2275 C   0  0  0  0  0  0  0  0  0  0  0  0
    7.4839   -0.0793   -1.1987 O   0  0  0  0  0  0  0  0  0  0  0  0
    9.0401    1.4299   -0.3542 N   0  0  0  0  0  0  0  0  0  0  0  0
    9.8911    1.9824    0.7107 C   0  0  2  0  0  0  0  0  0  0  0  0
    9.0696    2.7419    1.7597 C   0  0  0  0  0  0  0  0  0  0  0  0
   11.0203    2.8111    0.1309 C   0  0  0  0  0  0  0  0  0  0  0  0
   12.1897    2.3582    0.2411 O   0  0  0  0  0  0  0  0  0  0  0  0
   10.8421    4.0586   -0.5694 N   0  0  0  0  0  0  0  0  0  0  0  0
    9.5944    4.8273   -0.6770 C   0  0  2  0  0  0  0  0  0  0  0  0
    9.5929    5.5896   -2.0103 C   0  0  0  0  0  0  0  0  0  0  0  0
    9.4963    5.8004    0.4708 C   0  0  0  0  0  0  0  0  0  0  0  0
   10.4931    6.5022    0.7829 O   0  0  0  0  0  0  0  0  0  0  0  0
    8.3060    5.8876    1.2685 N   0  0  0  0  0  0  0  0  0  0  0  0
    6.9896    6.1534    0.6807 C   0  0  2  0  0  0  0  0  0  0  0  0
    6.5034    7.5274    1.1478 C   0  0  0  0  0  0  0  0  0  0  0  0
    6.0153    5.0724    1.0801 C   0  0  0  0  0  0  0  0  0  0  0  0
    5.8875    4.7817    2.2997 O   0  0  0  0  0  0  0  0  0  0  0  0
    5.2828    4.3072    0.1040 N   0  0  0  0  0  0  0  0  0  0  0  0
    4.3467    4.8765   -0.8841 C   0  0  2  0  0  0  0  0  0  0  0  0
    5.0927    5.6428   -1.9529 C   0  0  0  0  0  0  0  0  0  0  0  0
    5.0089    7.0659   -2.0772 N   0  0  0  0  0  0  0  0  0  0  0  0
    5.8392    5.0046   -2.7471 O   0  0  0  0  0  0  0  0  0  0  0  0
    3.2224    5.6747   -0.1917 C   0  0  0  0  0  0  0  0  0  0  0  0
    2.1591    4.5715    0.8109 S   0  0  0  0  0  0  0  0  0  0  0  0
    0.9287    4.2026   -0.4935 C   0  0  0  0  0  0  0  0  0  0  0  0
   -5.3414    8.5246    2.5648 H   0  0  0  0  0  0  0  0  0  0  0  0
   -3.8155    7.5996    2.2568 H   0  0  0  0  0  0  0  0  0  0  0  0
   -5.0439    6.9563    3.4116 H   0  0  0  0  0  0  0  0  0  0  0  0
   -6.2693    5.1569    2.5049 H   0  0  0  0  0  0  0  0  0  0  0  0
   -7.1888    5.5015   -0.3411 H   0  0  0  0  0  0  0  0  0  0  0  0
   -4.9448    4.5279   -0.6425 H   0  0  0  0  0  0  0  0  0  0  0  0
   -6.2151    3.3644   -1.0883 H   0  0  0  0  0  0  0  0  0  0  0  0
   -3.7199    4.6709    1.2925 H   0  0  0  0  0  0  0  0  0  0  0  0
   -3.6740    3.5390    2.6620 H   0  0  0  0  0  0  0  0  0  0  0  0
   -1.5891    4.8918    0.3153 H   0  0  0  0  0  0  0  0  0  0  0  0
    1.0804    1.5305   -0.0300 H   0  0  0  0  0  0  0  0  0  0  0  0
   -2.7706    1.0278    1.7991 H   0  0  0  0  0  0  0  0  0  0  0  0
    0.5554   -0.4848    1.2477 H   0  0  0  0  0  0  0  0  0  0  0  0
   -1.0325   -0.6939    2.0268 H   0  0  0  0  0  0  0  0  0  0  0  0
   -2.8693   -1.7269    1.2382 H   0  0  0  0  0  0  0  0  0  0  0  0
   -3.1891   -2.3631   -0.3902 H   0  0  0  0  0  0  0  0  0  0  0  0
   -1.4076   -4.0690   -0.1154 H   0  0  0  0  0  0  0  0  0  0  0  0
   -3.4868   -4.2764    2.0955 H   0  0  0  0  0  0  0  0  0  0  0  0
   -2.1907   -5.8229   -1.2061 H   0  0  0  0  0  0  0  0  0  0  0  0
   -3.6252   -7.0822   -2.7431 H   0  0  0  0  0  0  0  0  0  0  0  0
   -4.9936   -7.0131   -1.5713 H   0  0  0  0  0  0  0  0  0  0  0  0
   -3.4724   -7.8981   -1.1460 H   0  0  0  0  0  0  0  0  0  0  0  0
   -3.0545   -4.1071   -2.4774 H   0  0  0  0  0  0  0  0  0  0  0  0
   -5.4350   -3.8110    0.0635 H   0  0  0  0  0  0  0  0  0  0  0  0
   -7.1788   -2.3351   -1.9872 H   0  0  0  0  0  0  0  0  0  0  0  0
   -7.2079   -2.1380   -0.1901 H   0  0  0  0  0  0  0  0  0  0  0  0
   -5.7382   -1.6837   -1.1230 H   0  0  0  0  0  0  0  0  0  0  0  0
   -6.8146   -5.7885   -0.3917 H   0  0  0  0  0  0  0  0  0  0  0  0
   -9.7559   -3.1176   -0.8948 H   0  0  0  0  0  0  0  0  0  0  0  0
  -11.1360   -5.0465   -1.6328 H   0  0  0  0  0  0  0  0  0  0  0  0
  -11.6086   -4.5413    0.0265 H   0  0  0  0  0  0  0  0  0  0  0  0
  -10.5876   -6.0146   -0.2046 H   0  0  0  0  0  0  0  0  0  0  0  0
   -8.7301   -4.8463    1.4049 H   0  0  0  0  0  0  0  0  0  0  0  0
  -10.9559   -2.0595    0.6253 H   0  0  0  0  0  0  0  0  0  0  0  0
  -10.7451   -1.4816    3.6405 H   0  0  0  0  0  0  0  0  0  0  0  0
  -11.6937   -2.8259    2.8798 H   0  0  0  0  0  0  0  0  0  0  0  0
  -12.1379   -1.1123    2.5471 H   0  0  0  0  0  0  0  0  0  0  0  0
   -8.9984   -0.1438    1.9567 H   0  0  0  0  0  0  0  0  0  0  0  0
   -8.9156    1.4874   -0.5290 H   0  0  0  0  0  0  0  0  0  0  0  0
  -10.7636   -0.5931   -1.8661 H   0  0  0  0  0  0  0  0  0  0  0  0
   -9.0522   -0.8312   -1.3190 H   0  0  0  0  0  0  0  0  0  0  0  0
   -9.4126    0.2943   -2.6749 H   0  0  0  0  0  0  0  0  0  0  0  0
  -11.7919    1.7917   -1.5099 H   0  0  0  0  0  0  0  0  0  0  0  0
   -8.4224    4.2011   -1.7439 H   0  0  0  0  0  0  0  0  0  0  0  0
   -9.3471    6.3985   -0.8368 H   0  0  0  0  0  0  0  0  0  0  0  0
   -9.9530    5.9819   -2.4762 H   0  0  0  0  0  0  0  0  0  0  0  0
  -11.0107    5.7315   -1.0248 H   0  0  0  0  0  0  0  0  0  0  0  0
  -10.1469    3.7369    0.7312 H   0  0  0  0  0  0  0  0  0  0  0  0
    1.0965   -3.6755    2.6234 H   0  0  0  0  0  0  0  0  0  0  0  0
    0.7645   -3.8057   -0.3294 H   0  0  0  0  0  0  0  0  0  0  0  0
   -0.2843   -6.0131    0.5656 H   0  0  0  0  0  0  0  0  0  0  0  0
    1.0785   -6.2067   -0.5723 H   0  0  0  0  0  0  0  0  0  0  0  0
    1.3320   -6.4270    1.2140 H   0  0  0  0  0  0  0  0  0  0  0  0
    4.2467   -5.2940    1.2838 H   0  0  0  0  0  0  0  0  0  0  0  0
    3.1456   -5.4447   -1.5687 H   0  0  0  0  0  0  0  0  0  0  0  0
    4.1953   -7.6865   -1.7209 H   0  0  0  0  0  0  0  0  0  0  0  0
    4.7180   -7.5893    0.0090 H   0  0  0  0  0  0  0  0  0  0  0  0
    2.9724   -7.6378   -0.4039 H   0  0  0  0  0  0  0  0  0  0  0  0
    6.3419   -5.8546    0.4328 H   0  0  0  0  0  0  0  0  0  0  0  0
    7.8423   -4.4087   -1.7048 H   0  0  0  0  0  0  0  0  0  0  0  0
    7.9941   -7.4701   -1.4157 H   0  0  0  0  0  0  0  0  0  0  0  0
    9.1336   -6.4508   -2.3853 H   0  0  0  0  0  0  0  0  0  0  0  0
    7.3937   -6.5424   -2.8396 H   0  0  0  0  0  0  0  0  0  0  0  0
   10.0761   -4.0737    1.2605 H   0  0  0  0  0  0  0  0  0  0  0  0
    8.9453   -2.6516   -1.1148 H   0  0  0  0  0  0  0  0  0  0  0  0
   10.4373   -4.2872   -2.2342 H   0  0  0  0  0  0  0  0  0  0  0  0
   11.0907   -2.6184   -2.3655 H   0  0  0  0  0  0  0  0  0  0  0  0
   11.8098   -3.7894   -1.1780 H   0  0  0  0  0  0  0  0  0  0  0  0
   10.0450   -0.9936    2.1353 H   0  0  0  0  0  0  0  0  0  0  0  0
    8.0138    0.0507    1.8873 H   0  0  0  0  0  0  0  0  0  0  0  0
    7.1649   -2.3407    0.1490 H   0  0  0  0  0  0  0  0  0  0  0  0
    6.1378   -1.1947    1.0728 H   0  0  0  0  0  0  0  0  0  0  0  0
    7.2385   -2.3170    1.9497 H   0  0  0  0  0  0  0  0  0  0  0  0
    9.0601    1.8856   -1.2929 H   0  0  0  0  0  0  0  0  0  0  0  0
   10.3865    1.1469    1.2415 H   0  0  0  0  0  0  0  0  0  0  0  0
    9.6626    3.5627    2.2196 H   0  0  0  0  0  0  0  0  0  0  0  0
    8.1350    3.1532    1.3196 H   0  0  0  0  0  0  0  0  0  0  0  0
    8.7718    2.0618    2.5848 H   0  0  0  0  0  0  0  0  0  0  0  0
   11.7218    4.5458   -0.8487 H   0  0  0  0  0  0  0  0  0  0  0  0
    8.7149    4.1487   -0.6924 H   0  0  0  0  0  0  0  0  0  0  0  0
    9.6480    4.8654   -2.8486 H   0  0  0  0  0  0  0  0  0  0  0  0
   10.4612    6.2786   -2.0728 H   0  0  0  0  0  0  0  0  0  0  0  0
    8.6597    6.1784   -2.1275 H   0  0  0  0  0  0  0  0  0  0  0  0
    8.4220    6.0189    2.2973 H   0  0  0  0  0  0  0  0  0  0  0  0
    7.0812    6.1829   -0.4214 H   0  0  0  0  0  0  0  0  0  0  0  0
    7.2416    8.3025    0.8599 H   0  0  0  0  0  0  0  0  0  0  0  0
    6.3753    7.5465    2.2514 H   0  0  0  0  0  0  0  0  0  0  0  0
    5.5392    7.7824    0.6740 H   0  0  0  0  0  0  0  0  0  0  0  0
    5.1858    3.2864    0.2954 H   0  0  0  0  0  0  0  0  0  0  0  0
    3.8522    4.0340   -1.4112 H   0  0  0  0  0  0  0  0  0  0  0  0
    4.4498    7.6499   -1.4239 H   0  0  0  0  0  0  0  0  0  0  0  0
    5.5966    7.5678   -2.7856 H   0  0  0  0  0  0  0  0  0  0  0  0
    3.6550    6.4321    0.4902 H   0  0  0  0  0  0  0  0  0  0  0  0
    2.6064    6.2105   -0.9423 H   0  0  0  0  0  0  0  0  0  0  0  0
    0.4822    5.1577   -0.8541 H   0  0  0  0  0  0  0  0  0  0  0  0
    1.4257    3.7158   -1.3610 H   0  0  0  0  0  0  0  0  0  0  0  0
  1  2  1  0
  2  3  2  0
  2  4  1  0
  4  5  1  0
  5  6  1  0
  6  7  1  0
  7  8  1  0
  8  9  1  0
  9 10  2  0
 10 11  1  0
 11 12  2  0
 12 13  1  0
 13 14  2  0
 13 15  1  0
 15 16  1  0
 16 17  1  0
 17 18  1  0
 18 19  1  0
 19 20  1  0
 20 21  2  0
 20 22  1  0
 22 23  1  0
 22 24  1  0
 24 25  1  0
 25 26  2  0
 25 27  1  0
 27 28  1  0
 27 29  1  0
 29 30  1  0
 30 31  2  0
 30 32  1  0
 32 33  1  0
 32 34  1  0
 34 35  1  0
 35 36  2  0
 35 37  1  0
 37 38  1  0
 37 39  1  0
 39 40  1  0
 40 41  2  0
 40 42  1  0
 42 43  1  0
 42 44  1  0
 44 45  1  0
 45 46  2  0
 45 47  1  0
 47 48  1  0
 47 49  1  0
 49 50  1  0
 50 51  2  0
 18 52  1  0
 52 53  2  0
 52 54  1  0
 54 55  1  0
 55 56  1  0
 55 57  1  0
 57 58  2  0
 57 59  1  0
 59 60  1  0
 60 61  1  0
 60 62  1  0
 62 63  2  0
 62 64  1  0
 64 65  1  0
 65 66  1  0
 65 67  1  0
 67 68  2  0
 67 69  1  0
 69 70  1  0
 70 71  1  0
 70 72  1  0
 72 73  2  0
 72 74  1  0
 74 75  1  0
 75 76  1  0
 75 77  1  0
 77 78  2  0
 77 79  1  0
 79 80  1  0
 80 81  1  0
 80 82  1  0
 82 83  2  0
 82 84  1  0
 84 85  1  0
 85 86  1  0
 85 87  1  0
 87 88  2  0
 87 89  1  0
 89 90  1  0
 90 91  1  0
 90 92  1  0
 92 93  2  0
 92 94  1  0
 94 95  1  0
 95 96  1  0
 96 97  1  0
 96 98  2  0
 95 99  1  0
 99100  1  0
100101  1  0
 50  5  1  0
 14  9  1  0
101 11  1  0
  1102  1  0
  1103  1  0
  1104  1  0
  4105  1  0
  5106  1  6
  6107  1  0
  6108  1  0
  8109  1  0
  8110  1  0
 10111  1  0
 12112  1  0
 14113  1  0
 15114  1  0
 15115  1  0
 17116  1  0
 17117  1  0
 18118  1  6
 19119  1  0
 22120  1  1
 23121  1  0
 23122  1  0
 23123  1  0
 24124  1  0
 27125  1  1
 28126  1  0
 28127  1  0
 28128  1  0
 29129  1  0
 32130  1  6
 33131  1  0
 33132  1  0
 33133  1  0
 34134  1  0
 37135  1  6
 38136  1  0
 38137  1  0
 38138  1  0
 39139  1  0
 42140  1  1
 43141  1  0
 43142  1  0
 43143  1  0
 44144  1  0
 47145  1  6
 48146  1  0
 48147  1  0
 48148  1  0
 49149  1  0
 54150  1  0
 55151  1  6
 56152  1  0
 56153  1  0
 56154  1  0
 59155  1  0
 60156  1  6
 61157  1  0
 61158  1  0
 61159  1  0
 64160  1  0
 65161  1  6
 66162  1  0
 66163  1  0
 66164  1  0
 69165  1  0
 70166  1  6
 71167  1  0
 71168  1  0
 71169  1  0
 74170  1  0
 75171  1  1
 76172  1  0
 76173  1  0
 76174  1  0
 79175  1  0
 80176  1  1
 81177  1  0
 81178  1  0
 81179  1  0
 84180  1  0
 85181  1  6
 86182  1  0
 86183  1  0
 86184  1  0
 89185  1  0
 90186  1  6
 91187  1  0
 91188  1  0
 91189  1  0
 94190  1  0
 95191  1  6
 97192  1  0
 97193  1  0
 99194  1  0
 99195  1  0
101196  1  0
101197  1  0
M  END
