
     RDKit          3D

207209  0  0  0  0  0  0  0  0999 V2000
   -5.7267    3.2062    3.2915 C   0  0  0  0  0  0  0  0  0  0  0  0
   -6.0623    3.1167    1.8554 C   0  0  0  0  0  0  0  0  0  0  0  0
   -6.0994    2.0009    1.3108 O   0  0  0  0  0  0  0  0  0  0  0  0
   -6.3970    4.2509    1.1016 N   0  0  0  0  0  0  0  0  0  0  0  0
   -6.1401    4.4254   -0.3529 C   0  0  1  0  0  0  0  0  0  0  0  0
   -4.5699    4.3741   -0.6039 C   0  0  0  0  0  0  0  0  0  0  0  0
   -3.6677    2.7937   -0.4571 S   0  0  0  0  0  0  0  0  0  0  0  0
   -3.0285    2.9169    1.3016 C   0  0  0  0  0  0  0  0  0  0  0  0
   -1.5630    2.8479    1.4485 C   0  0  0  0  0  0  0  0  0  0  0  0
   -0.7611    3.6836    0.7188 C   0  0  0  0  0  0  0  0  0  0  0  0
    0.4839    3.2655    0.2502 C   0  0  0  0  0  0  0  0  0  0  0  0
    0.8969    1.9695    0.5667 C   0  0  0  0  0  0  0  0  0  0  0  0
    0.1538    1.2178    1.4980 C   0  0  0  0  0  0  0  0  0  0  0  0
   -0.9430    1.8295    2.1142 C   0  0  0  0  0  0  0  0  0  0  0  0
   -0.1956   -0.2343    1.1939 C   0  0  0  0  0  0  0  0  0  0  0  0
    0.4072   -0.9103   -0.4525 S   0  0  0  0  0  0  0  0  0  0  0  0
   -1.2433   -1.5902   -1.0437 C   0  0  0  0  0  0  0  0  0  0  0  0
   -1.3398   -3.1171   -0.8403 C   0  0  2  0  0  0  0  0  0  0  0  0
   -1.5091   -3.4518    0.5614 N   0  0  0  0  0  0  0  0  0  0  0  0
   -2.7858   -3.3610    1.2689 C   0  0  0  0  0  0  0  0  0  0  0  0
   -2.7800   -3.0413    2.4761 O   0  0  0  0  0  0  0  0  0  0  0  0
   -4.0288   -4.0542    0.7200 C   0  0  1  0  0  0  0  0  0  0  0  0
   -4.1231   -5.4494    1.3260 C   0  0  0  0  0  0  0  0  0  0  0  0
   -5.2649   -3.2496    1.0235 N   0  0  0  0  0  0  0  0  0  0  0  0
   -6.4440   -3.3512    0.2443 C   0  0  0  0  0  0  0  0  0  0  0  0
   -6.7353   -2.3562   -0.5134 O   0  0  0  0  0  0  0  0  0  0  0  0
   -7.3859   -4.5554    0.2587 C   0  0  1  0  0  0  0  0  0  0  0  0
   -7.4936   -5.1478    1.6865 C   0  0  0  0  0  0  0  0  0  0  0  0
   -8.8009   -4.3199   -0.2081 N   0  0  0  0  0  0  0  0  0  0  0  0
   -9.3359   -3.4398   -1.2237 C   0  0  0  0  0  0  0  0  0  0  0  0
   -8.5586   -3.0894   -2.1819 O   0  0  0  0  0  0  0  0  0  0  0  0
  -10.8693   -3.2792   -1.4074 C   0  0  1  0  0  0  0  0  0  0  0  0
  -11.6927   -4.4532   -0.8272 C   0  0  0  0  0  0  0  0  0  0  0  0
  -11.4240   -1.9611   -0.9998 N   0  0  0  0  0  0  0  0  0  0  0  0
  -12.4179   -1.1785   -1.7076 C   0  0  0  0  0  0  0  0  0  0  0  0
  -12.1788   -0.8046   -2.9021 O   0  0  0  0  0  0  0  0  0  0  0  0
  -13.7246   -0.6590   -0.9898 C   0  0  1  0  0  0  0  0  0  0  0  0
  -14.2468   -1.8134   -0.1338 C   0  0  0  0  0  0  0  0  0  0  0  0
  -13.4093    0.4866   -0.1132 N   0  0  0  0  0  0  0  0  0  0  0  0
  -12.3044    0.4532    0.8124 C   0  0  0  0  0  0  0  0  0  0  0  0
  -12.3800   -0.2218    1.9288 O   0  0  0  0  0  0  0  0  0  0  0  0
  -10.9791    1.0587    0.3686 C   0  0  1  0  0  0  0  0  0  0  0  0
  -11.2500    1.7714   -1.0152 C   0  0  0  0  0  0  0  0  0  0  0  0
  -10.3902    2.0318    1.2823 N   0  0  0  0  0  0  0  0  0  0  0  0
  -10.3029    3.4548    0.9910 C   0  0  0  0  0  0  0  0  0  0  0  0
  -11.0158    4.2524    1.6528 O   0  0  0  0  0  0  0  0  0  0  0  0
   -9.4880    3.9747   -0.2327 C   0  0  1  0  0  0  0  0  0  0  0  0
   -9.2324    5.4749   -0.2405 C   0  0  0  0  0  0  0  0  0  0  0  0
   -8.3375    3.0941   -0.5818 N   0  0  0  0  0  0  0  0  0  0  0  0
   -7.0323    3.5053   -1.1397 C   0  0  0  0  0  0  0  0  0  0  0  0
   -6.9322    3.6446   -2.3935 O   0  0  0  0  0  0  0  0  0  0  0  0
   -0.0520   -3.6886   -1.4145 C   0  0  0  0  0  0  0  0  0  0  0  0
    0.2488   -3.5139   -2.6229 O   0  0  0  0  0  0  0  0  0  0  0  0
    0.8744   -4.3826   -0.5728 N   0  0  0  0  0  0  0  0  0  0  0  0
    0.6098   -5.7396   -0.1563 C   0  0  2  0  0  0  0  0  0  0  0  0
    1.3128   -6.0662    1.1728 C   0  0  0  0  0  0  0  0  0  0  0  0
    0.9517   -6.6840   -1.2705 C   0  0  0  0  0  0  0  0  0  0  0  0
    0.0838   -7.5181   -1.6546 O   0  0  0  0  0  0  0  0  0  0  0  0
    2.1723   -6.5663   -2.0211 N   0  0  0  0  0  0  0  0  0  0  0  0
    3.5099   -6.6527   -1.4059 C   0  0  2  0  0  0  0  0  0  0  0  0
    4.5745   -6.3072   -2.4315 C   0  0  0  0  0  0  0  0  0  0  0  0
    3.7088   -8.0312   -0.8267 C   0  0  0  0  0  0  0  0  0  0  0  0
    3.0397   -9.0019   -1.2823 O   0  0  0  0  0  0  0  0  0  0  0  0
    4.5674   -8.2530    0.2986 N   0  0  0  0  0  0  0  0  0  0  0  0
    5.9999   -7.9468    0.2607 C   0  0  2  0  0  0  0  0  0  0  0  0
    6.8092   -9.1476    0.7580 C   0  0  0  0  0  0  0  0  0  0  0  0
    6.2670   -6.7211    1.0986 C   0  0  0  0  0  0  0  0  0  0  0  0
    5.9968   -6.7254    2.3216 O   0  0  0  0  0  0  0  0  0  0  0  0
    6.7580   -5.5233    0.4867 N   0  0  0  0  0  0  0  0  0  0  0  0
    8.1792   -5.2177    0.2504 C   0  0  2  0  0  0  0  0  0  0  0  0
    9.1001   -6.4234    0.4654 C   0  0  0  0  0  0  0  0  0  0  0  0
    8.5866   -4.0665    1.1100 C   0  0  0  0  0  0  0  0  0  0  0  0
    8.7246   -4.2170    2.3602 O   0  0  0  0  0  0  0  0  0  0  0  0
    8.6815   -2.7408    0.5542 N   0  0  0  0  0  0  0  0  0  0  0  0
    9.9311   -2.1913    0.0012 C   0  0  2  0  0  0  0  0  0  0  0  0
   10.6534   -3.1911   -0.9140 C   0  0  0  0  0  0  0  0  0  0  0  0
   10.8281   -1.7514    1.1231 C   0  0  0  0  0  0  0  0  0  0  0  0
   11.3533   -2.6207    1.8703 O   0  0  0  0  0  0  0  0  0  0  0  0
   11.0075   -0.3593    1.4654 N   0  0  0  0  0  0  0  0  0  0  0  0
   11.2687    0.7381    0.5163 C   0  0  2  0  0  0  0  0  0  0  0  0
   12.1300    0.2630   -0.6718 C   0  0  0  0  0  0  0  0  0  0  0  0
   12.0003    1.8384    1.2532 C   0  0  0  0  0  0  0  0  0  0  0  0
   13.1444    1.6052    1.7150 O   0  0  0  0  0  0  0  0  0  0  0  0
   11.3831    3.0959    1.5683 N   0  0  0  0  0  0  0  0  0  0  0  0
   10.7797    4.0043    0.5577 C   0  0  2  0  0  0  0  0  0  0  0  0
   11.7840    4.2886   -0.5620 C   0  0  0  0  0  0  0  0  0  0  0  0
   10.3889    5.2906    1.2332 C   0  0  0  0  0  0  0  0  0  0  0  0
   11.2629    5.9900    1.8088 O   0  0  0  0  0  0  0  0  0  0  0  0
    9.0211    5.7035    1.3239 N   0  0  0  0  0  0  0  0  0  0  0  0
    8.2601    6.3300    0.2200 C   0  0  2  0  0  0  0  0  0  0  0  0
    9.1698    6.9270   -0.8609 C   0  0  0  0  0  0  0  0  0  0  0  0
    7.3771    7.4002    0.7839 C   0  0  0  0  0  0  0  0  0  0  0  0
    7.8709    8.3042    1.5251 O   0  0  0  0  0  0  0  0  0  0  0  0
    5.9770    7.4292    0.4938 N   0  0  0  0  0  0  0  0  0  0  0  0
    5.4854    7.3578   -0.8674 C   0  0  2  0  0  0  0  0  0  0  0  0
    5.0609    8.7538   -1.3467 C   0  0  0  0  0  0  0  0  0  0  0  0
    4.3603    6.3692   -0.9432 C   0  0  0  0  0  0  0  0  0  0  0  0
    4.5980    5.1405   -0.7918 O   0  0  0  0  0  0  0  0  0  0  0  0
    3.0505    6.8063   -1.2476 N   0  0  0  0  0  0  0  0  0  0  0  0
    2.1882    7.4329   -0.2578 C   0  0  1  0  0  0  0  0  0  0  0  0
    1.5143    8.6598   -0.8207 C   0  0  0  0  0  0  0  0  0  0  0  0
    1.0067    9.6704    0.0561 N   0  0  0  0  0  0  0  0  0  0  0  0
    1.3534    8.7836   -2.0550 O   0  0  0  0  0  0  0  0  0  0  0  0
    1.1445    6.4340    0.2410 C   0  0  0  0  0  0  0  0  0  0  0  0
    0.3218    5.6491   -1.1910 S   0  0  0  0  0  0  0  0  0  0  0  0
    1.0395    3.9734   -0.9568 C   0  0  0  0  0  0  0  0  0  0  0  0
   -5.5006    4.2765    3.5379 H   0  0  0  0  0  0  0  0  0  0  0  0
   -6.6336    2.9944    3.8649 H   0  0  0  0  0  0  0  0  0  0  0  0
   -4.8023    2.6446    3.5585 H   0  0  0  0  0  0  0  0  0  0  0  0
   -6.7743    5.0967    1.5657 H   0  0  0  0  0  0  0  0  0  0  0  0
   -6.5269    5.4704   -0.5784 H   0  0  0  0  0  0  0  0  0  0  0  0
   -4.1259    5.1092    0.1575 H   0  0  0  0  0  0  0  0  0  0  0  0
   -4.3866    4.9468   -1.5075 H   0  0  0  0  0  0  0  0  0  0  0  0
   -3.4039    3.8026    1.7839 H   0  0  0  0  0  0  0  0  0  0  0  0
   -3.4568    2.0326    1.8504 H   0  0  0  0  0  0  0  0  0  0  0  0
   -1.2755    4.5649    0.4195 H   0  0  0  0  0  0  0  0  0  0  0  0
    1.7484    1.5409    0.0291 H   0  0  0  0  0  0  0  0  0  0  0  0
   -1.4588    1.2543    2.8423 H   0  0  0  0  0  0  0  0  0  0  0  0
    0.0293   -0.9533    2.0195 H   0  0  0  0  0  0  0  0  0  0  0  0
   -1.3154   -0.2772    1.1271 H   0  0  0  0  0  0  0  0  0  0  0  0
   -1.3525   -1.3672   -2.1281 H   0  0  0  0  0  0  0  0  0  0  0  0
   -2.1325   -1.1264   -0.5514 H   0  0  0  0  0  0  0  0  0  0  0  0
   -2.1902   -3.5186   -1.4501 H   0  0  0  0  0  0  0  0  0  0  0  0
   -0.6715   -3.3260    1.1839 H   0  0  0  0  0  0  0  0  0  0  0  0
   -3.9803   -4.1272   -0.3609 H   0  0  0  0  0  0  0  0  0  0  0  0
   -4.3350   -5.4171    2.4100 H   0  0  0  0  0  0  0  0  0  0  0  0
   -3.1408   -5.9639    1.2194 H   0  0  0  0  0  0  0  0  0  0  0  0
   -4.8877   -6.0576    0.8017 H   0  0  0  0  0  0  0  0  0  0  0  0
   -5.1191   -2.3336    1.5249 H   0  0  0  0  0  0  0  0  0  0  0  0
   -6.9228   -5.3386   -0.3660 H   0  0  0  0  0  0  0  0  0  0  0  0
   -7.8581   -6.1805    1.6595 H   0  0  0  0  0  0  0  0  0  0  0  0
   -6.5652   -5.1610    2.3176 H   0  0  0  0  0  0  0  0  0  0  0  0
   -8.2117   -4.5565    2.3290 H   0  0  0  0  0  0  0  0  0  0  0  0
   -9.4308   -5.0672    0.1277 H   0  0  0  0  0  0  0  0  0  0  0  0
  -11.0203   -3.4259   -2.5125 H   0  0  0  0  0  0  0  0  0  0  0  0
  -11.3104   -5.4363   -1.2021 H   0  0  0  0  0  0  0  0  0  0  0  0
  -11.6743   -4.5423    0.3050 H   0  0  0  0  0  0  0  0  0  0  0  0
  -12.7807   -4.3634   -1.1099 H   0  0  0  0  0  0  0  0  0  0  0  0
  -11.5167   -2.0387    0.0442 H   0  0  0  0  0  0  0  0  0  0  0  0
  -14.5823   -0.3543   -1.5989 H   0  0  0  0  0  0  0  0  0  0  0  0
  -13.9656   -2.7679   -0.5016 H   0  0  0  0  0  0  0  0  0  0  0  0
  -15.3520   -1.7952   -0.0865 H   0  0  0  0  0  0  0  0  0  0  0  0
  -13.9383   -1.8057    0.9663 H   0  0  0  0  0  0  0  0  0  0  0  0
  -14.1016    1.1559    0.3557 H   0  0  0  0  0  0  0  0  0  0  0  0
  -10.3146    0.2542    0.1174 H   0  0  0  0  0  0  0  0  0  0  0  0
  -11.9924    2.5912   -0.8290 H   0  0  0  0  0  0  0  0  0  0  0  0
  -11.7771    1.1531   -1.7128 H   0  0  0  0  0  0  0  0  0  0  0  0
  -10.3180    1.8271   -1.5953 H   0  0  0  0  0  0  0  0  0  0  0  0
  -10.2469    1.7426    2.2869 H   0  0  0  0  0  0  0  0  0  0  0  0
  -10.2496    3.8949   -1.0044 H   0  0  0  0  0  0  0  0  0  0  0  0
  -10.2130    6.0165   -0.2189 H   0  0  0  0  0  0  0  0  0  0  0  0
   -8.7330    5.7815   -1.1687 H   0  0  0  0  0  0  0  0  0  0  0  0
   -8.6592    5.7684    0.6567 H   0  0  0  0  0  0  0  0  0  0  0  0
   -8.4069    2.1044   -0.2949 H   0  0  0  0  0  0  0  0  0  0  0  0
    1.8704   -4.0561   -0.6407 H   0  0  0  0  0  0  0  0  0  0  0  0
   -0.4871   -5.8382    0.0438 H   0  0  0  0  0  0  0  0  0  0  0  0
    1.3924   -7.1604    1.2918 H   0  0  0  0  0  0  0  0  0  0  0  0
    2.3158   -5.5994    1.2262 H   0  0  0  0  0  0  0  0  0  0  0  0
    0.7037   -5.6547    1.9996 H   0  0  0  0  0  0  0  0  0  0  0  0
    2.1061   -6.7572   -3.0538 H   0  0  0  0  0  0  0  0  0  0  0  0
    3.5686   -5.8871   -0.5934 H   0  0  0  0  0  0  0  0  0  0  0  0
    4.7766   -7.1750   -3.1048 H   0  0  0  0  0  0  0  0  0  0  0  0
    4.2496   -5.4466   -3.0661 H   0  0  0  0  0  0  0  0  0  0  0  0
    5.5178   -5.9989   -1.9407 H   0  0  0  0  0  0  0  0  0  0  0  0
    4.2313   -8.9141    1.0349 H   0  0  0  0  0  0  0  0  0  0  0  0
    6.3208   -7.7579   -0.7904 H   0  0  0  0  0  0  0  0  0  0  0  0
    7.8884   -9.0228    0.5268 H   0  0  0  0  0  0  0  0  0  0  0  0
    6.6948   -9.2799    1.8583 H   0  0  0  0  0  0  0  0  0  0  0  0
    6.4655  -10.0708    0.2486 H   0  0  0  0  0  0  0  0  0  0  0  0
    6.0706   -4.7330    0.3817 H   0  0  0  0  0  0  0  0  0  0  0  0
    8.2696   -4.9116   -0.8164 H   0  0  0  0  0  0  0  0  0  0  0  0
   10.1664   -6.1178    0.4132 H   0  0  0  0  0  0  0  0  0  0  0  0
    8.9295   -6.8860    1.4621 H   0  0  0  0  0  0  0  0  0  0  0  0
    8.9310   -7.1726   -0.3323 H   0  0  0  0  0  0  0  0  0  0  0  0
    7.9899   -2.0502    0.8986 H   0  0  0  0  0  0  0  0  0  0  0  0
    9.6485   -1.3127   -0.6143 H   0  0  0  0  0  0  0  0  0  0  0  0
   10.9990   -4.0727   -0.3387 H   0  0  0  0  0  0  0  0  0  0  0  0
   11.5442   -2.7163   -1.3746 H   0  0  0  0  0  0  0  0  0  0  0  0
    9.9808   -3.5264   -1.7257 H   0  0  0  0  0  0  0  0  0  0  0  0
   11.1324   -0.1650    2.4868 H   0  0  0  0  0  0  0  0  0  0  0  0
   10.2991    1.1148    0.1292 H   0  0  0  0  0  0  0  0  0  0  0  0
   11.5084   -0.2725   -1.4154 H   0  0  0  0  0  0  0  0  0  0  0  0
   12.9389   -0.4104   -0.3203 H   0  0  0  0  0  0  0  0  0  0  0  0
   12.5954    1.1170   -1.2061 H   0  0  0  0  0  0  0  0  0  0  0  0
   11.5506    3.4624    2.5259 H   0  0  0  0  0  0  0  0  0  0  0  0
    9.8778    3.5133    0.1322 H   0  0  0  0  0  0  0  0  0  0  0  0
   11.2810    4.7798   -1.4183 H   0  0  0  0  0  0  0  0  0  0  0  0
   12.6066    4.9495   -0.2062 H   0  0  0  0  0  0  0  0  0  0  0  0
   12.2356    3.3598   -0.9513 H   0  0  0  0  0  0  0  0  0  0  0  0
    8.6096    5.7325    2.2825 H   0  0  0  0  0  0  0  0  0  0  0  0
    7.6328    5.5388   -0.2473 H   0  0  0  0  0  0  0  0  0  0  0  0
   10.0358    7.4562   -0.4124 H   0  0  0  0  0  0  0  0  0  0  0  0
    9.5227    6.1281   -1.5391 H   0  0  0  0  0  0  0  0  0  0  0  0
    8.6088    7.6547   -1.4911 H   0  0  0  0  0  0  0  0  0  0  0  0
    5.3278    7.7777    1.2462 H   0  0  0  0  0  0  0  0  0  0  0  0
    6.2709    6.9944   -1.5663 H   0  0  0  0  0  0  0  0  0  0  0  0
    4.3843    9.2352   -0.6046 H   0  0  0  0  0  0  0  0  0  0  0  0
    5.9549    9.3964   -1.4710 H   0  0  0  0  0  0  0  0  0  0  0  0
    4.5362    8.6955   -2.3233 H   0  0  0  0  0  0  0  0  0  0  0  0
    2.6402    6.4406   -2.1462 H   0  0  0  0  0  0  0  0  0  0  0  0
    2.8084    7.7635    0.6237 H   0  0  0  0  0  0  0  0  0  0  0  0
    0.4966   10.4900   -0.3284 H   0  0  0  0  0  0  0  0  0  0  0  0
    1.1515    9.6073    1.0895 H   0  0  0  0  0  0  0  0  0  0  0  0
    0.3871    6.9452    0.8797 H   0  0  0  0  0  0  0  0  0  0  0  0
    1.6493    5.6811    0.8964 H   0  0  0  0  0  0  0  0  0  0  0  0
    0.7480    3.3854   -1.8564 H   0  0  0  0  0  0  0  0  0  0  0  0
    2.1290    4.0236   -0.8865 H   0  0  0  0  0  0  0  0  0  0  0  0
  1  2  1  0
  2  3  2  0
  2  4  1  0
  4  5  1  0
  5  6  1  0
  6  7  1  0
  7  8  1  0
  8  9  1  0
  9 10  2  0
 10 11  1  0
 11 12  2  0
 12 13  1  0
 13 14  2  0
 13 15  1  0
 15 16  1  0
 16 17  1  0
 17 18  1  0
 18 19  1  0
 19 20  1  0
 20 21  2  0
 20 22  1  0
 22 23  1  0
 22 24  1  0
 24 25  1  0
 25 26  2  0
 25 27  1  0
 27 28  1  0
 27 29  1  0
 29 30  1  0
 30 31  2  0
 30 32  1  0
 32 33  1  0
 32 34  1  0
 34 35  1  0
 35 36  2  0
 35 37  1  0
 37 38  1  0
 37 39  1  0
 39 40  1  0
 40 41  2  0
 40 42  1  0
 42 43  1  0
 42 44  1  0
 44 45  1  0
 45 46  2  0
 45 47  1  0
 47 48  1  0
 47 49  1  0
 49 50  1  0
 50 51  2  0
 18 52  1  0
 52 53  2  0
 52 54  1  0
 54 55  1  0
 55 56  1  0
 55 57  1  0
 57 58  2  0
 57 59  1  0
 59 60  1  0
 60 61  1  0
 60 62  1  0
 62 63  2  0
 62 64  1  0
 64 65  1  0
 65 66  1  0
 65 67  1  0
 67 68  2  0
 67 69  1  0
 69 70  1  0
 70 71  1  0
 70 72  1  0
 72 73  2  0
 72 74  1  0
 74 75  1  0
 75 76  1  0
 75 77  1  0
 77 78  2  0
 77 79  1  0
 79 80  1  0
 80 81  1  0
 80 82  1  0
 82 83  2  0
 82 84  1  0
 84 85  1  0
 85 86  1  0
 85 87  1  0
 87 88  2  0
 87 89  1  0
 89 90  1  0
 90 91  1  0
 90 92  1  0
 92 93  2  0
 92 94  1  0
 94 95  1  0
 95 96  1  0
 95 97  1  0
 97 98  2  0
 97 99  1  0
 99100  1  0
100101  1  0
101102  1  0
101103  2  0
100104  1  0
104105  1  0
105106  1  0
 50  5  1  0
 14  9  1  0
106 11  1  0
  1107  1  0
  1108  1  0
  1109  1  0
  4110  1  0
  5111  1  6
  6112  1  0
  6113  1  0
  8114  1  0
  8115  1  0
 10116  1  0
 12117  1  0
 14118  1  0
 15119  1  0
 15120  1  0
 17121  1  0
 17122  1  0
 18123  1  6
 19124  1  0
 22125  1  6
 23126  1  0
 23127  1  0
 23128  1  0
 24129  1  0
 27130  1  6
 28131  1  0
 28132  1  0
 28133  1  0
 29134  1  0
 32135  1  6
 33136  1  0
 33137  1  0
 33138  1  0
 34139  1  0
 37140  1  6
 38141  1  0
 38142  1  0
 38143  1  0
 39144  1  0
 42145  1  6
 43146  1  0
 43147  1  0
 43148  1  0
 44149  1  0
 47150  1  6
 48151  1  0
 48152  1  0
 48153  1  0
 49154  1  0
 54155  1  0
 55156  1  1
 56157  1  0
 56158  1  0
 56159  1  0
 59160  1  0
 60161  1  1
 61162  1  0
 61163  1  0
 61164  1  0
 64165  1  0
 65166  1  6
 66167  1  0
 66168  1  0
 66169  1  0
 69170  1  0
 70171  1  6
 71172  1  0
 71173  1  0
 71174  1  0
 74175  1  0
 75176  1  6
 76177  1  0
 76178  1  0
 76179  1  0
 79180  1  0
 80181  1  6
 81182  1  0
 81183  1  0
 81184  1  0
 84185  1  0
 85186  1  6
 86187  1  0
 86188  1  0
 86189  1  0
 89190  1  0
 90191  1  6
 91192  1  0
 91193  1  0
 91194  1  0
 94195  1  0
 95196  1  6
 96197  1  0
 96198  1  0
 96199  1  0
 99200  1  0
100201  1  1
102202  1  0
102203  1  0
104204  1  0
104205  1  0
106206  1  0
106207  1  0
M  END
