
     RDKit          3D

167169  0  0  0  0  0  0  0  0999 V2000
    1.9247   -9.2559    0.5873 C   0  0  0  0  0  0  0  0  0  0  0  0
    2.5665   -8.3744    1.5592 C   0  0  0  0  0  0  0  0  0  0  0  0
    3.3609   -8.8546    2.4203 O   0  0  0  0  0  0  0  0  0  0  0  0
    2.3945   -6.9395    1.5667 N   0  0  0  0  0  0  0  0  0  0  0  0
    2.2987   -6.0387    0.3794 C   0  0  2  0  0  0  0  0  0  0  0  0
    0.8829   -6.0731   -0.2274 C   0  0  0  0  0  0  0  0  0  0  0  0
   -0.2083   -5.0142    0.8115 S   0  0  0  0  0  0  0  0  0  0  0  0
    0.2569   -3.4423   -0.0805 C   0  0  0  0  0  0  0  0  0  0  0  0
   -0.8745   -2.9355   -0.9217 C   0  0  0  0  0  0  0  0  0  0  0  0
   -1.9817   -3.7291   -1.1963 C   0  0  0  0  0  0  0  0  0  0  0  0
   -3.2520   -3.1783   -1.2679 C   0  0  0  0  0  0  0  0  0  0  0  0
   -3.3678   -1.7801   -1.4797 C   0  0  0  0  0  0  0  0  0  0  0  0
   -2.2756   -0.9917   -1.0725 C   0  0  0  0  0  0  0  0  0  0  0  0
   -0.9891   -1.5414   -1.2367 C   0  0  0  0  0  0  0  0  0  0  0  0
   -2.5440   -0.3039    0.2494 C   0  0  0  0  0  0  0  0  0  0  0  0
   -3.8912    0.8958    0.1992 S   0  0  0  0  0  0  0  0  0  0  0  0
   -3.2392    1.9395   -1.1910 C   0  0  0  0  0  0  0  0  0  0  0  0
   -2.3512    3.0015   -0.4190 C   0  0  1  0  0  0  0  0  0  0  0  0
   -0.9540    2.5562   -0.6074 N   0  0  0  0  0  0  0  0  0  0  0  0
    0.2320    3.0897   -0.0101 C   0  0  0  0  0  0  0  0  0  0  0  0
    1.2001    2.2750    0.2135 O   0  0  0  0  0  0  0  0  0  0  0  0
    0.4707    4.5685    0.1578 C   0  0  1  0  0  0  0  0  0  0  0  0
    1.2162    4.8190    1.5183 C   0  0  0  0  0  0  0  0  0  0  0  0
    1.2253    5.0194   -1.0135 N   0  0  0  0  0  0  0  0  0  0  0  0
    2.6324    5.2517   -1.0912 C   0  0  0  0  0  0  0  0  0  0  0  0
    3.3977    4.3738   -1.6383 O   0  0  0  0  0  0  0  0  0  0  0  0
    3.2503    6.5799   -0.6947 C   0  0  1  0  0  0  0  0  0  0  0  0
    2.1758    7.7040   -0.4467 C   0  0  0  0  0  0  0  0  0  0  0  0
    4.0885    6.4194    0.5007 N   0  0  0  0  0  0  0  0  0  0  0  0
    5.4992    6.4686    0.4791 C   0  0  0  0  0  0  0  0  0  0  0  0
    6.0944    7.4007    1.1172 O   0  0  0  0  0  0  0  0  0  0  0  0
    6.2994    5.3720   -0.2130 C   0  0  1  0  0  0  0  0  0  0  0  0
    6.8274    5.8254   -1.5821 C   0  0  0  0  0  0  0  0  0  0  0  0
    7.4113    4.9617    0.6431 N   0  0  0  0  0  0  0  0  0  0  0  0
    7.4345    3.7237    1.3585 C   0  0  0  0  0  0  0  0  0  0  0  0
    6.8485    3.6929    2.4843 O   0  0  0  0  0  0  0  0  0  0  0  0
    8.2182    2.5410    0.7808 C   0  0  1  0  0  0  0  0  0  0  0  0
    9.4418    3.0626    0.0035 C   0  0  0  0  0  0  0  0  0  0  0  0
    8.7220    1.6736    1.8663 N   0  0  0  0  0  0  0  0  0  0  0  0
    9.1601    0.3388    1.7256 C   0  0  0  0  0  0  0  0  0  0  0  0
   10.0322   -0.0643    2.5726 O   0  0  0  0  0  0  0  0  0  0  0  0
    8.8532   -0.5628    0.5418 C   0  0  1  0  0  0  0  0  0  0  0  0
    9.8243   -0.2720   -0.6552 C   0  0  0  0  0  0  0  0  0  0  0  0
    8.8558   -1.9772    0.9196 N   0  0  0  0  0  0  0  0  0  0  0  0
    8.8431   -3.1079    0.0433 C   0  0  0  0  0  0  0  0  0  0  0  0
    9.8686   -3.8536    0.0755 O   0  0  0  0  0  0  0  0  0  0  0  0
    7.5924   -3.4913   -0.6766 C   0  0  1  0  0  0  0  0  0  0  0  0
    7.6458   -2.9937   -2.1588 C   0  0  0  0  0  0  0  0  0  0  0  0
    7.5035   -4.9562   -0.6832 N   0  0  0  0  0  0  0  0  0  0  0  0
    6.8889   -5.7236    0.3511 C   0  0  0  0  0  0  0  0  0  0  0  0
    7.6085   -6.6147    0.9560 O   0  0  0  0  0  0  0  0  0  0  0  0
    5.4231   -5.5559    0.7143 C   0  0  1  0  0  0  0  0  0  0  0  0
    5.1100   -4.3141    1.5079 C   0  0  0  0  0  0  0  0  0  0  0  0
    4.6224   -5.6662   -0.5140 N   0  0  0  0  0  0  0  0  0  0  0  0
    3.3641   -6.3239   -0.6566 C   0  0  0  0  0  0  0  0  0  0  0  0
    3.1666   -6.9388   -1.7346 O   0  0  0  0  0  0  0  0  0  0  0  0
   -2.5984    4.3962   -0.9274 C   0  0  0  0  0  0  0  0  0  0  0  0
   -1.9328    4.8536   -1.9026 O   0  0  0  0  0  0  0  0  0  0  0  0
   -3.6121    5.1738   -0.3810 N   0  0  0  0  0  0  0  0  0  0  0  0
   -4.9478    4.7235   -0.0896 C   0  0  2  0  0  0  0  0  0  0  0  0
   -6.0140    5.5624   -0.8589 C   0  0  0  0  0  0  0  0  0  0  0  0
   -5.2274    4.9024    1.3972 C   0  0  0  0  0  0  0  0  0  0  0  0
   -5.2086    6.0093    2.0357 O   0  0  0  0  0  0  0  0  0  0  0  0
   -5.5409    3.7642    2.1700 N   0  0  0  0  0  0  0  0  0  0  0  0
   -6.9270    3.1751    2.2789 C   0  0  2  0  0  0  0  0  0  0  0  0
   -6.6458    1.6019    2.5525 C   0  0  0  0  0  0  0  0  0  0  0  0
   -7.7690    3.3448    1.0472 C   0  0  0  0  0  0  0  0  0  0  0  0
   -8.3277    4.4513    0.8518 O   0  0  0  0  0  0  0  0  0  0  0  0
   -8.1760    2.2196    0.2447 N   0  0  0  0  0  0  0  0  0  0  0  0
   -7.3895    1.6120   -0.8802 C   0  0  2  0  0  0  0  0  0  0  0  0
   -7.6582    2.3559   -2.2286 C   0  0  0  0  0  0  0  0  0  0  0  0
   -7.6571    0.1598   -1.1042 C   0  0  0  0  0  0  0  0  0  0  0  0
   -6.7661   -0.6535   -1.3239 O   0  0  0  0  0  0  0  0  0  0  0  0
   -8.9820   -0.3916   -0.8096 N   0  0  0  0  0  0  0  0  0  0  0  0
   -9.4662   -1.0963    0.3667 C   0  0  2  0  0  0  0  0  0  0  0  0
   -8.3931   -1.1942    1.5574 C   0  0  0  0  0  0  0  0  0  0  0  0
   -9.8588   -2.4513    0.0856 C   0  0  0  0  0  0  0  0  0  0  0  0
  -10.9243   -2.9075    0.5360 O   0  0  0  0  0  0  0  0  0  0  0  0
   -9.0370   -3.2762   -0.8104 N   0  0  0  0  0  0  0  0  0  0  0  0
   -7.6558   -3.7455   -0.5730 C   0  0  1  0  0  0  0  0  0  0  0  0
   -7.7110   -5.0440    0.1397 C   0  0  0  0  0  0  0  0  0  0  0  0
   -7.8144   -5.0694    1.5706 N   0  0  0  0  0  0  0  0  0  0  0  0
   -7.8880   -6.1263   -0.5003 O   0  0  0  0  0  0  0  0  0  0  0  0
   -6.9149   -3.8033   -1.9412 C   0  0  0  0  0  0  0  0  0  0  0  0
   -5.3371   -4.8847   -1.8996 S   0  0  0  0  0  0  0  0  0  0  0  0
   -4.4161   -3.8717   -0.6219 C   0  0  0  0  0  0  0  0  0  0  0  0
    2.2141   -9.0431   -0.4576 H   0  0  0  0  0  0  0  0  0  0  0  0
    0.8167   -9.2362    0.6603 H   0  0  0  0  0  0  0  0  0  0  0  0
    2.2178  -10.3299    0.8103 H   0  0  0  0  0  0  0  0  0  0  0  0
    2.4237   -6.4513    2.5186 H   0  0  0  0  0  0  0  0  0  0  0  0
    2.4553   -5.0082    0.7324 H   0  0  0  0  0  0  0  0  0  0  0  0
    0.5054   -7.1293   -0.2626 H   0  0  0  0  0  0  0  0  0  0  0  0
    0.9168   -5.8205   -1.3390 H   0  0  0  0  0  0  0  0  0  0  0  0
    0.4235   -2.7421    0.7626 H   0  0  0  0  0  0  0  0  0  0  0  0
    1.2098   -3.4529   -0.6596 H   0  0  0  0  0  0  0  0  0  0  0  0
   -1.9625   -4.7383   -1.0537 H   0  0  0  0  0  0  0  0  0  0  0  0
   -4.2921   -1.3165   -1.6645 H   0  0  0  0  0  0  0  0  0  0  0  0
   -0.1983   -0.8046   -1.0504 H   0  0  0  0  0  0  0  0  0  0  0  0
   -1.5848   -0.0342    0.8785 H   0  0  0  0  0  0  0  0  0  0  0  0
   -2.9856   -1.1527    0.9284 H   0  0  0  0  0  0  0  0  0  0  0  0
   -4.1028    2.4135   -1.8112 H   0  0  0  0  0  0  0  0  0  0  0  0
   -2.6236    1.4036   -2.0439 H   0  0  0  0  0  0  0  0  0  0  0  0
   -2.5602    2.9921    0.6563 H   0  0  0  0  0  0  0  0  0  0  0  0
   -0.7300    1.6536   -1.1217 H   0  0  0  0  0  0  0  0  0  0  0  0
   -0.4944    5.1648    0.2400 H   0  0  0  0  0  0  0  0  0  0  0  0
    2.2324    4.4150    1.4418 H   0  0  0  0  0  0  0  0  0  0  0  0
    1.2451    5.8911    1.7353 H   0  0  0  0  0  0  0  0  0  0  0  0
    0.6436    4.2891    2.3321 H   0  0  0  0  0  0  0  0  0  0  0  0
    0.8041    4.7403   -1.9289 H   0  0  0  0  0  0  0  0  0  0  0  0
    3.8957    6.9453   -1.5863 H   0  0  0  0  0  0  0  0  0  0  0  0
    2.4716    8.6407   -1.0203 H   0  0  0  0  0  0  0  0  0  0  0  0
    2.0231    7.9561    0.6222 H   0  0  0  0  0  0  0  0  0  0  0  0
    1.1639    7.4528   -0.8362 H   0  0  0  0  0  0  0  0  0  0  0  0
    3.7293    6.7007    1.4349 H   0  0  0  0  0  0  0  0  0  0  0  0
    5.6346    4.4850   -0.3826 H   0  0  0  0  0  0  0  0  0  0  0  0
    6.0528    5.7752   -2.3537 H   0  0  0  0  0  0  0  0  0  0  0  0
    7.6904    5.1691   -1.8900 H   0  0  0  0  0  0  0  0  0  0  0  0
    7.2407    6.8441   -1.5042 H   0  0  0  0  0  0  0  0  0  0  0  0
    8.1137    5.6687    0.9788 H   0  0  0  0  0  0  0  0  0  0  0  0
    7.5713    1.9448    0.1152 H   0  0  0  0  0  0  0  0  0  0  0  0
    9.7886    4.0975    0.3171 H   0  0  0  0  0  0  0  0  0  0  0  0
   10.3443    2.4250    0.1562 H   0  0  0  0  0  0  0  0  0  0  0  0
    9.2366    3.1031   -1.0839 H   0  0  0  0  0  0  0  0  0  0  0  0
    8.9323    2.1031    2.8093 H   0  0  0  0  0  0  0  0  0  0  0  0
    7.7983   -0.3443    0.1473 H   0  0  0  0  0  0  0  0  0  0  0  0
   10.7871    0.1486   -0.2707 H   0  0  0  0  0  0  0  0  0  0  0  0
   10.0964   -1.2051   -1.2003 H   0  0  0  0  0  0  0  0  0  0  0  0
    9.3950    0.4488   -1.3882 H   0  0  0  0  0  0  0  0  0  0  0  0
    9.2886   -2.2056    1.8776 H   0  0  0  0  0  0  0  0  0  0  0  0
    6.7288   -3.0039   -0.1965 H   0  0  0  0  0  0  0  0  0  0  0  0
    7.2730   -3.7740   -2.8313 H   0  0  0  0  0  0  0  0  0  0  0  0
    7.0124   -2.1048   -2.2886 H   0  0  0  0  0  0  0  0  0  0  0  0
    8.6991   -2.7258   -2.4777 H   0  0  0  0  0  0  0  0  0  0  0  0
    8.1546   -5.4555   -1.2828 H   0  0  0  0  0  0  0  0  0  0  0  0
    5.1798   -6.4877    1.4071 H   0  0  0  0  0  0  0  0  0  0  0  0
    4.6794   -3.5119    0.8616 H   0  0  0  0  0  0  0  0  0  0  0  0
    4.3776   -4.5411    2.3121 H   0  0  0  0  0  0  0  0  0  0  0  0
    6.0238   -3.8884    2.0117 H   0  0  0  0  0  0  0  0  0  0  0  0
    5.0998   -5.4273   -1.4465 H   0  0  0  0  0  0  0  0  0  0  0  0
   -3.4905    6.2116   -0.4668 H   0  0  0  0  0  0  0  0  0  0  0  0
   -5.1251    3.6353   -0.3363 H   0  0  0  0  0  0  0  0  0  0  0  0
   -6.7779    4.9015   -1.3269 H   0  0  0  0  0  0  0  0  0  0  0  0
   -6.6507    6.2824   -0.2407 H   0  0  0  0  0  0  0  0  0  0  0  0
   -5.5933    6.0597   -1.7743 H   0  0  0  0  0  0  0  0  0  0  0  0
   -4.9728    3.6548    3.0674 H   0  0  0  0  0  0  0  0  0  0  0  0
   -7.4686    3.5217    3.3106 H   0  0  0  0  0  0  0  0  0  0  0  0
   -7.6634    1.2901    2.3914 H   0  0  0  0  0  0  0  0  0  0  0  0
   -6.1670    1.2590    1.6093 H   0  0  0  0  0  0  0  0  0  0  0  0
   -6.1851    1.1450    3.5310 H   0  0  0  0  0  0  0  0  0  0  0  0
   -9.2289    2.1562   -0.0192 H   0  0  0  0  0  0  0  0  0  0  0  0
   -6.3033    1.7424   -0.6581 H   0  0  0  0  0  0  0  0  0  0  0  0
   -6.8296    3.0366   -2.4746 H   0  0  0  0  0  0  0  0  0  0  0  0
   -8.7066    2.8138   -2.2511 H   0  0  0  0  0  0  0  0  0  0  0  0
   -7.6244    1.6664   -3.1256 H   0  0  0  0  0  0  0  0  0  0  0  0
   -9.6082   -0.5356   -1.6521 H   0  0  0  0  0  0  0  0  0  0  0  0
  -10.3201   -0.5210    0.7378 H   0  0  0  0  0  0  0  0  0  0  0  0
   -7.5336   -0.6589    1.2337 H   0  0  0  0  0  0  0  0  0  0  0  0
   -9.0484   -0.9299    2.5080 H   0  0  0  0  0  0  0  0  0  0  0  0
   -7.9856   -2.1483    1.8289 H   0  0  0  0  0  0  0  0  0  0  0  0
   -9.6133   -3.9923   -1.3499 H   0  0  0  0  0  0  0  0  0  0  0  0
   -7.1197   -2.9643    0.0541 H   0  0  0  0  0  0  0  0  0  0  0  0
   -7.0868   -4.6310    2.2013 H   0  0  0  0  0  0  0  0  0  0  0  0
   -8.7612   -5.3889    1.9311 H   0  0  0  0  0  0  0  0  0  0  0  0
   -6.7249   -2.8472   -2.3985 H   0  0  0  0  0  0  0  0  0  0  0  0
   -7.5654   -4.4250   -2.5601 H   0  0  0  0  0  0  0  0  0  0  0  0
   -4.9644   -3.1725    0.0008 H   0  0  0  0  0  0  0  0  0  0  0  0
   -3.9457   -4.5739    0.0975 H   0  0  0  0  0  0  0  0  0  0  0  0
  1  2  1  0
  2  3  2  0
  2  4  1  0
  4  5  1  0
  5  6  1  0
  6  7  1  0
  7  8  1  0
  8  9  1  0
  9 10  1  0
 10 11  2  0
 11 12  1  0
 12 13  2  0
 13 14  1  0
 13 15  1  0
 15 16  1  0
 16 17  1  0
 17 18  1  0
 18 19  1  0
 19 20  1  0
 20 21  2  0
 20 22  1  0
 22 23  1  0
 22 24  1  0
 24 25  1  0
 25 26  2  0
 25 27  1  0
 27 28  1  0
 27 29  1  0
 29 30  1  0
 30 31  2  0
 30 32  1  0
 32 33  1  0
 32 34  1  0
 34 35  1  0
 35 36  2  0
 35 37  1  0
 37 38  1  0
 37 39  1  0
 39 40  1  0
 40 41  2  0
 40 42  1  0
 42 43  1  0
 42 44  1  0
 44 45  1  0
 45 46  2  0
 45 47  1  0
 47 48  1  0
 47 49  1  0
 49 50  1  0
 50 51  2  0
 50 52  1  0
 52 53  1  0
 52 54  1  0
 54 55  1  0
 55 56  2  0
 18 57  1  0
 57 58  2  0
 57 59  1  0
 59 60  1  0
 60 61  1  0
 60 62  1  0
 62 63  2  0
 62 64  1  0
 64 65  1  0
 65 66  1  0
 65 67  1  0
 67 68  2  0
 67 69  1  0
 69 70  1  0
 70 71  1  0
 70 72  1  0
 72 73  2  0
 72 74  1  0
 74 75  1  0
 75 76  1  0
 75 77  1  0
 77 78  2  0
 77 79  1  0
 79 80  1  0
 80 81  1  0
 81 82  1  0
 81 83  2  0
 80 84  1  0
 84 85  1  0
 85 86  1  0
 55  5  1  0
 14  9  2  0
 86 11  1  0
  1 87  1  0
  1 88  1  0
  1 89  1  0
  4 90  1  0
  5 91  1  1
  6 92  1  0
  6 93  1  0
  8 94  1  0
  8 95  1  0
 10 96  1  0
 12 97  1  0
 14 98  1  0
 15 99  1  0
 15100  1  0
 17101  1  0
 17102  1  0
 18103  1  1
 19104  1  0
 22105  1  1
 23106  1  0
 23107  1  0
 23108  1  0
 24109  1  0
 27110  1  6
 28111  1  0
 28112  1  0
 28113  1  0
 29114  1  0
 32115  1  6
 33116  1  0
 33117  1  0
 33118  1  0
 34119  1  0
 37120  1  6
 38121  1  0
 38122  1  0
 38123  1  0
 39124  1  0
 42125  1  6
 43126  1  0
 43127  1  0
 43128  1  0
 44129  1  0
 47130  1  1
 48131  1  0
 48132  1  0
 48133  1  0
 49134  1  0
 52135  1  1
 53136  1  0
 53137  1  0
 53138  1  0
 54139  1  0
 59140  1  0
 60141  1  6
 61142  1  0
 61143  1  0
 61144  1  0
 64145  1  0
 65146  1  1
 66147  1  0
 66148  1  0
 66149  1  0
 69150  1  0
 70151  1  1
 71152  1  0
 71153  1  0
 71154  1  0
 74155  1  0
 75156  1  1
 76157  1  0
 76158  1  0
 76159  1  0
 79160  1  0
 80161  1  1
 82162  1  0
 82163  1  0
 84164  1  0
 84165  1  0
 86166  1  0
 86167  1  0
M  END
