
     RDKit          3D

157159  0  0  0  0  0  0  0  0999 V2000
    2.3397    9.3008   -1.2185 C   0  0  0  0  0  0  0  0  0  0  0  0
    3.0653    8.7324   -0.0357 C   0  0  0  0  0  0  0  0  0  0  0  0
    3.7420    9.5029    0.7021 O   0  0  0  0  0  0  0  0  0  0  0  0
    3.0304    7.3301    0.2764 N   0  0  0  0  0  0  0  0  0  0  0  0
    2.1712    6.3464   -0.3962 C   0  0  2  0  0  0  0  0  0  0  0  0
    0.8267    6.2421    0.3487 C   0  0  0  0  0  0  0  0  0  0  0  0
    1.0743    5.7226    2.0885 S   0  0  0  0  0  0  0  0  0  0  0  0
   -0.6600    5.9704    2.6191 C   0  0  0  0  0  0  0  0  0  0  0  0
   -1.6064    5.0370    1.9117 C   0  0  0  0  0  0  0  0  0  0  0  0
   -1.4740    3.6493    2.0589 C   0  0  0  0  0  0  0  0  0  0  0  0
   -2.3744    2.7669    1.4378 C   0  0  0  0  0  0  0  0  0  0  0  0
   -3.4609    3.3042    0.7267 C   0  0  0  0  0  0  0  0  0  0  0  0
   -3.5911    4.6873    0.5454 C   0  0  0  0  0  0  0  0  0  0  0  0
   -2.6601    5.5496    1.1408 C   0  0  0  0  0  0  0  0  0  0  0  0
   -4.7447    5.2324   -0.2486 C   0  0  0  0  0  0  0  0  0  0  0  0
   -6.2994    4.9713    0.6772 S   0  0  0  0  0  0  0  0  0  0  0  0
   -7.0263    3.8069   -0.5317 C   0  0  0  0  0  0  0  0  0  0  0  0
   -8.3568    3.2297   -0.0163 C   0  0  1  0  0  0  0  0  0  0  0  0
   -9.3969    4.2678    0.3189 C   0  0  0  0  0  0  0  0  0  0  0  0
   -9.4433    5.5444   -0.3242 N   0  0  0  0  0  0  0  0  0  0  0  0
  -10.2738    3.9867    1.1837 O   0  0  0  0  0  0  0  0  0  0  0  0
   -8.9041    2.3182   -1.0251 N   0  0  0  0  0  0  0  0  0  0  0  0
   -8.7835    0.8800   -1.0031 C   0  0  0  0  0  0  0  0  0  0  0  0
   -9.1530    0.2357   -2.0256 O   0  0  0  0  0  0  0  0  0  0  0  0
   -8.2781    0.1214    0.2063 C   0  0  1  0  0  0  0  0  0  0  0  0
   -9.3882    0.0993    1.2728 C   0  0  0  0  0  0  0  0  0  0  0  0
   -7.8143   -1.2237   -0.1970 N   0  0  0  0  0  0  0  0  0  0  0  0
   -8.2795   -2.4691    0.3410 C   0  0  0  0  0  0  0  0  0  0  0  0
   -8.5213   -2.5810    1.5708 O   0  0  0  0  0  0  0  0  0  0  0  0
   -8.4936   -3.6581   -0.5612 C   0  0  1  0  0  0  0  0  0  0  0  0
   -9.4552   -3.2787   -1.6966 C   0  0  0  0  0  0  0  0  0  0  0  0
   -7.2191   -4.1648   -1.1050 N   0  0  0  0  0  0  0  0  0  0  0  0
   -6.0071   -4.2640   -0.3411 C   0  0  0  0  0  0  0  0  0  0  0  0
   -6.0509   -4.1499    0.9183 O   0  0  0  0  0  0  0  0  0  0  0  0
   -4.7005   -4.5829   -1.0303 C   0  0  1  0  0  0  0  0  0  0  0  0
   -4.4911   -3.7616   -2.3047 C   0  0  0  0  0  0  0  0  0  0  0  0
   -3.5632   -4.4285   -0.1089 N   0  0  0  0  0  0  0  0  0  0  0  0
   -3.1095   -3.1592    0.3907 C   0  0  0  0  0  0  0  0  0  0  0  0
   -3.5631   -2.7458    1.4960 O   0  0  0  0  0  0  0  0  0  0  0  0
   -2.0872   -2.3228   -0.3781 C   0  0  1  0  0  0  0  0  0  0  0  0
   -1.6485   -1.0673    0.4156 C   0  0  0  0  0  0  0  0  0  0  0  0
   -2.8851    0.2704    0.2781 S   0  0  0  0  0  0  0  0  0  0  0  0
   -2.2185    1.2803    1.6577 C   0  0  0  0  0  0  0  0  0  0  0  0
   -0.8814   -3.0804   -0.7563 N   0  0  0  0  0  0  0  0  0  0  0  0
   -0.6522   -4.4662   -0.4806 C   0  0  0  0  0  0  0  0  0  0  0  0
   -1.0326   -5.3259   -1.3201 O   0  0  0  0  0  0  0  0  0  0  0  0
    0.2004   -4.8908    0.6881 C   0  0  1  0  0  0  0  0  0  0  0  0
    0.0597   -3.9518    1.8931 C   0  0  0  0  0  0  0  0  0  0  0  0
   -0.1685   -6.2498    1.0855 N   0  0  0  0  0  0  0  0  0  0  0  0
    0.6431   -7.3951    0.7966 C   0  0  0  0  0  0  0  0  0  0  0  0
    0.0784   -8.4650    0.4296 O   0  0  0  0  0  0  0  0  0  0  0  0
    2.1472   -7.3687    0.9447 C   0  0  1  0  0  0  0  0  0  0  0  0
    2.6153   -8.5905    1.7493 C   0  0  0  0  0  0  0  0  0  0  0  0
    2.7699   -7.3772   -0.3829 N   0  0  0  0  0  0  0  0  0  0  0  0
    3.3742   -6.2041   -0.9409 C   0  0  0  0  0  0  0  0  0  0  0  0
    2.7143   -5.5101   -1.7624 O   0  0  0  0  0  0  0  0  0  0  0  0
    4.7808   -5.7822   -0.5935 C   0  0  1  0  0  0  0  0  0  0  0  0
    5.5562   -6.8873    0.1584 C   0  0  0  0  0  0  0  0  0  0  0  0
    5.5066   -5.4465   -1.8249 N   0  0  0  0  0  0  0  0  0  0  0  0
    6.2873   -4.2498   -1.9864 C   0  0  0  0  0  0  0  0  0  0  0  0
    6.3604   -3.7307   -3.1272 O   0  0  0  0  0  0  0  0  0  0  0  0
    7.0710   -3.6513   -0.8489 C   0  0  1  0  0  0  0  0  0  0  0  0
    8.5611   -3.5017   -1.2160 C   0  0  0  0  0  0  0  0  0  0  0  0
    6.4954   -2.3772   -0.3956 N   0  0  0  0  0  0  0  0  0  0  0  0
    6.7471   -1.1280   -1.0605 C   0  0  0  0  0  0  0  0  0  0  0  0
    6.4960   -1.0231   -2.2947 O   0  0  0  0  0  0  0  0  0  0  0  0
    7.2730    0.0821   -0.3070 C   0  0  1  0  0  0  0  0  0  0  0  0
    7.9007   -0.3097    1.0380 C   0  0  0  0  0  0  0  0  0  0  0  0
    8.2748    0.7712   -1.1371 N   0  0  0  0  0  0  0  0  0  0  0  0
    8.5873    2.1754   -1.0774 C   0  0  0  0  0  0  0  0  0  0  0  0
    9.2488    2.6837   -2.0176 O   0  0  0  0  0  0  0  0  0  0  0  0
    8.2432    3.0459    0.1103 C   0  0  1  0  0  0  0  0  0  0  0  0
    9.4706    3.2004    1.0195 C   0  0  0  0  0  0  0  0  0  0  0  0
    7.8179    4.3749   -0.3429 N   0  0  0  0  0  0  0  0  0  0  0  0
    6.5780    4.9718    0.0574 C   0  0  0  0  0  0  0  0  0  0  0  0
    6.5754    6.1603    0.4796 O   0  0  0  0  0  0  0  0  0  0  0  0
    5.2817    4.2069   -0.0305 C   0  0  1  0  0  0  0  0  0  0  0  0
    4.8072    3.8548    1.3934 C   0  0  0  0  0  0  0  0  0  0  0  0
    4.3001    5.0135   -0.7730 N   0  0  0  0  0  0  0  0  0  0  0  0
    2.8968    5.0224   -0.4849 C   0  0  0  0  0  0  0  0  0  0  0  0
    2.2836    3.9354   -0.3126 O   0  0  0  0  0  0  0  0  0  0  0  0
    2.7196    8.8409   -2.1531 H   0  0  0  0  0  0  0  0  0  0  0  0
    2.5030   10.3979   -1.2777 H   0  0  0  0  0  0  0  0  0  0  0  0
    1.2477    9.1054   -1.1176 H   0  0  0  0  0  0  0  0  0  0  0  0
    3.5628    7.0110    1.1236 H   0  0  0  0  0  0  0  0  0  0  0  0
    1.9661    6.6655   -1.4386 H   0  0  0  0  0  0  0  0  0  0  0  0
    0.3217    7.2305    0.3318 H   0  0  0  0  0  0  0  0  0  0  0  0
    0.1660    5.5143   -0.1644 H   0  0  0  0  0  0  0  0  0  0  0  0
   -0.9353    7.0358    2.4633 H   0  0  0  0  0  0  0  0  0  0  0  0
   -0.7231    5.7708    3.7109 H   0  0  0  0  0  0  0  0  0  0  0  0
   -0.6609    3.2467    2.6570 H   0  0  0  0  0  0  0  0  0  0  0  0
   -4.2087    2.6513    0.3050 H   0  0  0  0  0  0  0  0  0  0  0  0
   -2.7526    6.6196    1.0019 H   0  0  0  0  0  0  0  0  0  0  0  0
   -4.7581    4.7487   -1.2500 H   0  0  0  0  0  0  0  0  0  0  0  0
   -4.6241    6.3252   -0.4173 H   0  0  0  0  0  0  0  0  0  0  0  0
   -6.3213    2.9597   -0.6803 H   0  0  0  0  0  0  0  0  0  0  0  0
   -7.1616    4.3092   -1.5127 H   0  0  0  0  0  0  0  0  0  0  0  0
   -8.1311    2.6900    0.9285 H   0  0  0  0  0  0  0  0  0  0  0  0
  -10.1059    6.2698    0.0233 H   0  0  0  0  0  0  0  0  0  0  0  0
   -8.7744    5.8231   -1.0768 H   0  0  0  0  0  0  0  0  0  0  0  0
   -9.2885    2.7464   -1.8982 H   0  0  0  0  0  0  0  0  0  0  0  0
   -7.3971    0.6590    0.6114 H   0  0  0  0  0  0  0  0  0  0  0  0
   -8.9668   -0.2060    2.2510 H   0  0  0  0  0  0  0  0  0  0  0  0
   -9.8271    1.1071    1.4120 H   0  0  0  0  0  0  0  0  0  0  0  0
  -10.2086   -0.5820    0.9716 H   0  0  0  0  0  0  0  0  0  0  0  0
   -7.2244   -1.2760   -1.0556 H   0  0  0  0  0  0  0  0  0  0  0  0
   -8.9755   -4.4780    0.0234 H   0  0  0  0  0  0  0  0  0  0  0  0
   -8.9619   -2.6002   -2.4224 H   0  0  0  0  0  0  0  0  0  0  0  0
   -9.8001   -4.1867   -2.2359 H   0  0  0  0  0  0  0  0  0  0  0  0
  -10.3566   -2.7681   -1.2833 H   0  0  0  0  0  0  0  0  0  0  0  0
   -7.2461   -4.6573   -2.0345 H   0  0  0  0  0  0  0  0  0  0  0  0
   -4.7496   -5.6562   -1.3283 H   0  0  0  0  0  0  0  0  0  0  0  0
   -4.6525   -2.6813   -2.0995 H   0  0  0  0  0  0  0  0  0  0  0  0
   -5.1999   -4.0853   -3.0970 H   0  0  0  0  0  0  0  0  0  0  0  0
   -3.4623   -3.9095   -2.6911 H   0  0  0  0  0  0  0  0  0  0  0  0
   -3.2458   -5.2781    0.4038 H   0  0  0  0  0  0  0  0  0  0  0  0
   -2.5715   -1.9803   -1.3164 H   0  0  0  0  0  0  0  0  0  0  0  0
   -1.4943   -1.3278    1.4813 H   0  0  0  0  0  0  0  0  0  0  0  0
   -0.6889   -0.6814    0.0108 H   0  0  0  0  0  0  0  0  0  0  0  0
   -2.7463    0.9941    2.5894 H   0  0  0  0  0  0  0  0  0  0  0  0
   -1.1445    1.0486    1.7964 H   0  0  0  0  0  0  0  0  0  0  0  0
   -0.1786   -2.6010   -1.3656 H   0  0  0  0  0  0  0  0  0  0  0  0
    1.2583   -4.8543    0.3596 H   0  0  0  0  0  0  0  0  0  0  0  0
    0.4390   -2.9392    1.6345 H   0  0  0  0  0  0  0  0  0  0  0  0
    0.6549   -4.3385    2.7456 H   0  0  0  0  0  0  0  0  0  0  0  0
   -1.0003   -3.8782    2.2095 H   0  0  0  0  0  0  0  0  0  0  0  0
   -1.1594   -6.4216    1.3746 H   0  0  0  0  0  0  0  0  0  0  0  0
    2.4519   -6.4613    1.5143 H   0  0  0  0  0  0  0  0  0  0  0  0
    3.7114   -8.5617    1.9065 H   0  0  0  0  0  0  0  0  0  0  0  0
    2.1252   -8.6017    2.7459 H   0  0  0  0  0  0  0  0  0  0  0  0
    2.3573   -9.5295    1.2156 H   0  0  0  0  0  0  0  0  0  0  0  0
    2.5644   -8.1762   -1.0267 H   0  0  0  0  0  0  0  0  0  0  0  0
    4.7163   -4.8890    0.0681 H   0  0  0  0  0  0  0  0  0  0  0  0
    6.6298   -6.6321    0.2313 H   0  0  0  0  0  0  0  0  0  0  0  0
    5.4631   -7.8602   -0.3690 H   0  0  0  0  0  0  0  0  0  0  0  0
    5.1601   -6.9738    1.1927 H   0  0  0  0  0  0  0  0  0  0  0  0
    5.3634   -6.0470   -2.6712 H   0  0  0  0  0  0  0  0  0  0  0  0
    7.0425   -4.3517    0.0074 H   0  0  0  0  0  0  0  0  0  0  0  0
    9.0000   -4.4977   -1.4137 H   0  0  0  0  0  0  0  0  0  0  0  0
    9.1135   -3.0370   -0.3818 H   0  0  0  0  0  0  0  0  0  0  0  0
    8.6846   -2.8738   -2.1179 H   0  0  0  0  0  0  0  0  0  0  0  0
    6.0764   -2.3545    0.5571 H   0  0  0  0  0  0  0  0  0  0  0  0
    6.4096    0.7552   -0.1327 H   0  0  0  0  0  0  0  0  0  0  0  0
    8.7141   -1.0536    0.9025 H   0  0  0  0  0  0  0  0  0  0  0  0
    8.3295    0.5734    1.5389 H   0  0  0  0  0  0  0  0  0  0  0  0
    7.1383   -0.7266    1.7253 H   0  0  0  0  0  0  0  0  0  0  0  0
    8.7995    0.2054   -1.8451 H   0  0  0  0  0  0  0  0  0  0  0  0
    7.4396    2.5808    0.7047 H   0  0  0  0  0  0  0  0  0  0  0  0
    9.1776    3.7251    1.9541 H   0  0  0  0  0  0  0  0  0  0  0  0
    9.8943    2.2093    1.2873 H   0  0  0  0  0  0  0  0  0  0  0  0
   10.2585    3.7954    0.5158 H   0  0  0  0  0  0  0  0  0  0  0  0
    8.5356    4.9996   -0.7794 H   0  0  0  0  0  0  0  0  0  0  0  0
    5.4470    3.2597   -0.5952 H   0  0  0  0  0  0  0  0  0  0  0  0
    4.3811    4.7496    1.8975 H   0  0  0  0  0  0  0  0  0  0  0  0
    4.0440    3.0542    1.3524 H   0  0  0  0  0  0  0  0  0  0  0  0
    5.6481    3.4785    2.0097 H   0  0  0  0  0  0  0  0  0  0  0  0
    4.6521    5.7930   -1.3742 H   0  0  0  0  0  0  0  0  0  0  0  0
  1  2  1  0
  2  3  2  0
  2  4  1  0
  4  5  1  0
  5  6  1  0
  6  7  1  0
  7  8  1  0
  8  9  1  0
  9 10  1  0
 10 11  2  0
 11 12  1  0
 12 13  2  0
 13 14  1  0
 13 15  1  0
 15 16  1  0
 16 17  1  0
 17 18  1  0
 18 19  1  0
 19 20  1  0
 19 21  2  0
 18 22  1  0
 22 23  1  0
 23 24  2  0
 23 25  1  0
 25 26  1  0
 25 27  1  0
 27 28  1  0
 28 29  2  0
 28 30  1  0
 30 31  1  0
 30 32  1  0
 32 33  1  0
 33 34  2  0
 33 35  1  0
 35 36  1  0
 35 37  1  0
 37 38  1  0
 38 39  2  0
 38 40  1  0
 40 41  1  0
 41 42  1  0
 42 43  1  0
 40 44  1  0
 44 45  1  0
 45 46  2  0
 45 47  1  0
 47 48  1  0
 47 49  1  0
 49 50  1  0
 50 51  2  0
 50 52  1  0
 52 53  1  0
 52 54  1  0
 54 55  1  0
 55 56  2  0
 55 57  1  0
 57 58  1  0
 57 59  1  0
 59 60  1  0
 60 61  2  0
 60 62  1  0
 62 63  1  0
 62 64  1  0
 64 65  1  0
 65 66  2  0
 65 67  1  0
 67 68  1  0
 67 69  1  0
 69 70  1  0
 70 71  2  0
 70 72  1  0
 72 73  1  0
 72 74  1  0
 74 75  1  0
 75 76  2  0
 75 77  1  0
 77 78  1  0
 77 79  1  0
 79 80  1  0
 80 81  2  0
 80  5  1  0
 14  9  2  0
 43 11  1  0
  1 82  1  0
  1 83  1  0
  1 84  1  0
  4 85  1  0
  5 86  1  6
  6 87  1  0
  6 88  1  0
  8 89  1  0
  8 90  1  0
 10 91  1  0
 12 92  1  0
 14 93  1  0
 15 94  1  0
 15 95  1  0
 17 96  1  0
 17 97  1  0
 18 98  1  1
 20 99  1  0
 20100  1  0
 22101  1  0
 25102  1  1
 26103  1  0
 26104  1  0
 26105  1  0
 27106  1  0
 30107  1  1
 31108  1  0
 31109  1  0
 31110  1  0
 32111  1  0
 35112  1  6
 36113  1  0
 36114  1  0
 36115  1  0
 37116  1  0
 40117  1  6
 41118  1  0
 41119  1  0
 43120  1  0
 43121  1  0
 44122  1  0
 47123  1  6
 48124  1  0
 48125  1  0
 48126  1  0
 49127  1  0
 52128  1  1
 53129  1  0
 53130  1  0
 53131  1  0
 54132  1  0
 57133  1  1
 58134  1  0
 58135  1  0
 58136  1  0
 59137  1  0
 62138  1  1
 63139  1  0
 63140  1  0
 63141  1  0
 64142  1  0
 67143  1  1
 68144  1  0
 68145  1  0
 68146  1  0
 69147  1  0
 72148  1  1
 73149  1  0
 73150  1  0
 73151  1  0
 74152  1  0
 77153  1  6
 78154  1  0
 78155  1  0
 78156  1  0
 79157  1  0
M  END
