
     RDKit          3D

177179  0  0  0  0  0  0  0  0999 V2000
    4.4679   -9.4855   -0.6690 C   0  0  0  0  0  0  0  0  0  0  0  0
    3.8755   -8.1431   -0.9534 C   0  0  0  0  0  0  0  0  0  0  0  0
    3.1726   -7.9828   -1.9860 O   0  0  0  0  0  0  0  0  0  0  0  0
    4.0988   -7.0547   -0.0480 N   0  0  0  0  0  0  0  0  0  0  0  0
    3.8328   -5.6597   -0.4094 C   0  0  1  0  0  0  0  0  0  0  0  0
    3.0921   -4.9344    0.7226 C   0  0  0  0  0  0  0  0  0  0  0  0
    1.6070   -5.8659    1.2407 S   0  0  0  0  0  0  0  0  0  0  0  0
    0.5996   -4.4146    1.7145 C   0  0  0  0  0  0  0  0  0  0  0  0
   -0.3188   -4.0243    0.5878 C   0  0  0  0  0  0  0  0  0  0  0  0
   -0.3339   -2.7103    0.0954 C   0  0  0  0  0  0  0  0  0  0  0  0
   -1.2553   -2.3285   -0.8938 C   0  0  0  0  0  0  0  0  0  0  0  0
   -2.1343   -3.2874   -1.4201 C   0  0  0  0  0  0  0  0  0  0  0  0
   -2.1258   -4.6046   -0.9351 C   0  0  0  0  0  0  0  0  0  0  0  0
   -1.2287   -4.9599    0.0784 C   0  0  0  0  0  0  0  0  0  0  0  0
   -3.1295   -5.6062   -1.4244 C   0  0  0  0  0  0  0  0  0  0  0  0
   -4.3406   -5.9467   -0.1003 S   0  0  0  0  0  0  0  0  0  0  0  0
   -5.5233   -4.6126   -0.5220 C   0  0  0  0  0  0  0  0  0  0  0  0
   -6.6902   -5.1660   -1.3671 C   0  0  1  0  0  0  0  0  0  0  0  0
   -7.4345   -6.2738   -0.6634 C   0  0  0  0  0  0  0  0  0  0  0  0
   -8.1038   -7.2787   -1.4245 N   0  0  0  0  0  0  0  0  0  0  0  0
   -7.5124   -6.2938    0.5945 O   0  0  0  0  0  0  0  0  0  0  0  0
   -7.6586   -4.1334   -1.7733 N   0  0  0  0  0  0  0  0  0  0  0  0
   -7.8236   -2.8850   -1.0827 C   0  0  0  0  0  0  0  0  0  0  0  0
   -6.9275   -2.0012   -1.1801 O   0  0  0  0  0  0  0  0  0  0  0  0
   -9.0607   -2.5787   -0.2727 C   0  0  1  0  0  0  0  0  0  0  0  0
  -10.0377   -3.7573   -0.1867 C   0  0  0  0  0  0  0  0  0  0  0  0
   -8.6531   -2.1928    1.0849 N   0  0  0  0  0  0  0  0  0  0  0  0
   -9.0537   -1.0049    1.7948 C   0  0  0  0  0  0  0  0  0  0  0  0
   -8.7280   -0.9048    3.0096 O   0  0  0  0  0  0  0  0  0  0  0  0
   -9.9337    0.0698    1.1790 C   0  0  1  0  0  0  0  0  0  0  0  0
  -11.4046   -0.3007    1.4038 C   0  0  0  0  0  0  0  0  0  0  0  0
   -9.6575    1.3913    1.7610 N   0  0  0  0  0  0  0  0  0  0  0  0
  -10.0016    2.6469    1.1445 C   0  0  0  0  0  0  0  0  0  0  0  0
   -9.7399    3.7118    1.7706 O   0  0  0  0  0  0  0  0  0  0  0  0
  -10.6087    2.7441   -0.2455 C   0  0  1  0  0  0  0  0  0  0  0  0
  -11.7369    3.7866   -0.2919 C   0  0  0  0  0  0  0  0  0  0  0  0
   -9.5742    3.0411   -1.2392 N   0  0  0  0  0  0  0  0  0  0  0  0
   -8.6887    4.1581   -1.1235 C   0  0  0  0  0  0  0  0  0  0  0  0
   -9.1294    5.3288   -1.2832 O   0  0  0  0  0  0  0  0  0  0  0  0
   -7.2238    3.9300   -0.8671 C   0  0  1  0  0  0  0  0  0  0  0  0
   -6.4177    4.2906   -2.1177 C   0  0  0  0  0  0  0  0  0  0  0  0
   -6.7848    4.7243    0.2856 N   0  0  0  0  0  0  0  0  0  0  0  0
   -5.6093    4.3846    1.0292 C   0  0  0  0  0  0  0  0  0  0  0  0
   -5.7414    3.8746    2.1750 O   0  0  0  0  0  0  0  0  0  0  0  0
   -4.2380    4.7672    0.5200 C   0  0  1  0  0  0  0  0  0  0  0  0
   -3.5308    5.7337    1.4805 C   0  0  0  0  0  0  0  0  0  0  0  0
   -3.4051    3.5899    0.2407 N   0  0  0  0  0  0  0  0  0  0  0  0
   -2.8207    2.7597    1.2622 C   0  0  0  0  0  0  0  0  0  0  0  0
   -3.3807    2.6531    2.3874 O   0  0  0  0  0  0  0  0  0  0  0  0
   -1.5254    2.0146    1.0372 C   0  0  1  0  0  0  0  0  0  0  0  0
   -1.7288    0.4882    1.0769 C   0  0  0  0  0  0  0  0  0  0  0  0
   -2.7526   -0.1266   -0.3205 S   0  0  0  0  0  0  0  0  0  0  0  0
   -1.4023   -0.8876   -1.2926 C   0  0  0  0  0  0  0  0  0  0  0  0
   -0.8605    2.4228   -0.2062 N   0  0  0  0  0  0  0  0  0  0  0  0
    0.2952    3.2743   -0.2725 C   0  0  0  0  0  0  0  0  0  0  0  0
    1.0110    3.2445   -1.3138 O   0  0  0  0  0  0  0  0  0  0  0  0
    0.6738    4.2140    0.8467 C   0  0  1  0  0  0  0  0  0  0  0  0
    1.7658    3.5594    1.7114 C   0  0  0  0  0  0  0  0  0  0  0  0
    1.1026    5.4956    0.2668 N   0  0  0  0  0  0  0  0  0  0  0  0
    2.2985    6.1944    0.6283 C   0  0  0  0  0  0  0  0  0  0  0  0
    2.4702    6.5659    1.8228 O   0  0  0  0  0  0  0  0  0  0  0  0
    3.3391    6.4930   -0.4239 C   0  0  1  0  0  0  0  0  0  0  0  0
    2.8137    7.5196   -1.4316 C   0  0  0  0  0  0  0  0  0  0  0  0
    4.5683    7.0004    0.1998 N   0  0  0  0  0  0  0  0  0  0  0  0
    5.8690    6.4113    0.0414 C   0  0  0  0  0  0  0  0  0  0  0  0
    6.8715    7.1727    0.0465 O   0  0  0  0  0  0  0  0  0  0  0  0
    6.0616    4.9237   -0.1710 C   0  0  1  0  0  0  0  0  0  0  0  0
    6.4401    4.6414   -1.6256 C   0  0  0  0  0  0  0  0  0  0  0  0
    7.0657    4.3596    0.7433 N   0  0  0  0  0  0  0  0  0  0  0  0
    8.4339    4.7841    0.7905 C   0  0  0  0  0  0  0  0  0  0  0  0
    8.7368    5.8087    1.4594 O   0  0  0  0  0  0  0  0  0  0  0  0
    9.5115    3.9147    0.1899 C   0  0  1  0  0  0  0  0  0  0  0  0
   10.7400    4.7433   -0.2023 C   0  0  0  0  0  0  0  0  0  0  0  0
    9.8900    2.8790    1.1557 N   0  0  0  0  0  0  0  0  0  0  0  0
    9.6771    1.4637    0.9938 C   0  0  0  0  0  0  0  0  0  0  0  0
    9.7164    0.7301    2.0218 O   0  0  0  0  0  0  0  0  0  0  0  0
    9.4669    0.8125   -0.3626 C   0  0  1  0  0  0  0  0  0  0  0  0
   10.7792    0.8447   -1.1603 C   0  0  0  0  0  0  0  0  0  0  0  0
    8.9424   -0.5544   -0.1879 N   0  0  0  0  0  0  0  0  0  0  0  0
    9.6410   -1.7656   -0.5225 C   0  0  0  0  0  0  0  0  0  0  0  0
   10.0319   -1.9688   -1.7035 O   0  0  0  0  0  0  0  0  0  0  0  0
    9.9631   -2.7792    0.5430 C   0  0  1  0  0  0  0  0  0  0  0  0
   11.3645   -2.5130    1.0982 C   0  0  0  0  0  0  0  0  0  0  0  0
    8.9717   -2.7264    1.6216 N   0  0  0  0  0  0  0  0  0  0  0  0
    7.6722   -3.3375    1.5603 C   0  0  0  0  0  0  0  0  0  0  0  0
    6.8886   -3.1882    2.5367 O   0  0  0  0  0  0  0  0  0  0  0  0
    7.2601   -4.2560    0.4265 C   0  0  1  0  0  0  0  0  0  0  0  0
    7.6220   -5.6991    0.8044 C   0  0  0  0  0  0  0  0  0  0  0  0
    5.8200   -4.1374    0.1619 N   0  0  0  0  0  0  0  0  0  0  0  0
    5.1422   -5.0000   -0.7658 C   0  0  0  0  0  0  0  0  0  0  0  0
    5.7044   -5.3040   -1.8548 O   0  0  0  0  0  0  0  0  0  0  0  0
    5.5722   -9.3918   -0.6107 H   0  0  0  0  0  0  0  0  0  0  0  0
    4.0766   -9.8696    0.2976 H   0  0  0  0  0  0  0  0  0  0  0  0
    4.2062  -10.2044   -1.4783 H   0  0  0  0  0  0  0  0  0  0  0  0
    4.5895   -7.2479    0.8564 H   0  0  0  0  0  0  0  0  0  0  0  0
    3.1803   -5.6085   -1.3068 H   0  0  0  0  0  0  0  0  0  0  0  0
    2.8150   -3.9198    0.3649 H   0  0  0  0  0  0  0  0  0  0  0  0
    3.7371   -4.8363    1.6197 H   0  0  0  0  0  0  0  0  0  0  0  0
   -0.0236   -4.6936    2.5873 H   0  0  0  0  0  0  0  0  0  0  0  0
    1.2410   -3.5655    2.0354 H   0  0  0  0  0  0  0  0  0  0  0  0
    0.3532   -1.9773    0.5043 H   0  0  0  0  0  0  0  0  0  0  0  0
   -2.8621   -2.9920   -2.1688 H   0  0  0  0  0  0  0  0  0  0  0  0
   -1.2552   -5.9605    0.4876 H   0  0  0  0  0  0  0  0  0  0  0  0
   -2.6077   -6.5527   -1.6631 H   0  0  0  0  0  0  0  0  0  0  0  0
   -3.6300   -5.2624   -2.3527 H   0  0  0  0  0  0  0  0  0  0  0  0
   -5.0136   -3.7915   -1.0676 H   0  0  0  0  0  0  0  0  0  0  0  0
   -5.9074   -4.1917    0.4319 H   0  0  0  0  0  0  0  0  0  0  0  0
   -6.2448   -5.5876   -2.2958 H   0  0  0  0  0  0  0  0  0  0  0  0
   -8.6276   -8.0420   -0.9408 H   0  0  0  0  0  0  0  0  0  0  0  0
   -8.1418   -7.2105   -2.4668 H   0  0  0  0  0  0  0  0  0  0  0  0
   -8.4516   -4.4505   -2.3667 H   0  0  0  0  0  0  0  0  0  0  0  0
   -9.5969   -1.7671   -0.7937 H   0  0  0  0  0  0  0  0  0  0  0  0
  -10.9179   -3.4693    0.4281 H   0  0  0  0  0  0  0  0  0  0  0  0
  -10.4104   -4.0330   -1.1995 H   0  0  0  0  0  0  0  0  0  0  0  0
   -9.5600   -4.6400    0.2866 H   0  0  0  0  0  0  0  0  0  0  0  0
   -8.0639   -2.8780    1.6122 H   0  0  0  0  0  0  0  0  0  0  0  0
   -9.7107    0.1348    0.0983 H   0  0  0  0  0  0  0  0  0  0  0  0
  -11.6567   -1.2288    0.8559 H   0  0  0  0  0  0  0  0  0  0  0  0
  -11.5972   -0.4622    2.4856 H   0  0  0  0  0  0  0  0  0  0  0  0
  -12.0771    0.5060    1.0515 H   0  0  0  0  0  0  0  0  0  0  0  0
   -9.1837    1.4540    2.6918 H   0  0  0  0  0  0  0  0  0  0  0  0
  -11.0801    1.7849   -0.5263 H   0  0  0  0  0  0  0  0  0  0  0  0
  -12.1810    3.8188   -1.3120 H   0  0  0  0  0  0  0  0  0  0  0  0
  -11.3603    4.7976   -0.0399 H   0  0  0  0  0  0  0  0  0  0  0  0
  -12.5370    3.5111    0.4279 H   0  0  0  0  0  0  0  0  0  0  0  0
   -9.6900    2.6273   -2.1949 H   0  0  0  0  0  0  0  0  0  0  0  0
   -7.0733    2.8496   -0.6446 H   0  0  0  0  0  0  0  0  0  0  0  0
   -6.3849    5.3938   -2.2553 H   0  0  0  0  0  0  0  0  0  0  0  0
   -5.3827    3.9011   -2.0233 H   0  0  0  0  0  0  0  0  0  0  0  0
   -6.8690    3.8294   -3.0223 H   0  0  0  0  0  0  0  0  0  0  0  0
   -7.4758    5.3331    0.7823 H   0  0  0  0  0  0  0  0  0  0  0  0
   -4.3726    5.3295   -0.4291 H   0  0  0  0  0  0  0  0  0  0  0  0
   -3.3601    5.2645    2.4728 H   0  0  0  0  0  0  0  0  0  0  0  0
   -2.5527    6.0359    1.0529 H   0  0  0  0  0  0  0  0  0  0  0  0
   -4.1516    6.6417    1.6218 H   0  0  0  0  0  0  0  0  0  0  0  0
   -3.0949    3.4650   -0.7451 H   0  0  0  0  0  0  0  0  0  0  0  0
   -0.8719    2.2532    1.9025 H   0  0  0  0  0  0  0  0  0  0  0  0
   -0.7384   -0.0084    1.1103 H   0  0  0  0  0  0  0  0  0  0  0  0
   -2.2447    0.2125    2.0203 H   0  0  0  0  0  0  0  0  0  0  0  0
   -0.4491   -0.3315   -1.1690 H   0  0  0  0  0  0  0  0  0  0  0  0
   -1.6705   -0.8226   -2.3690 H   0  0  0  0  0  0  0  0  0  0  0  0
   -1.2240    2.0561   -1.1157 H   0  0  0  0  0  0  0  0  0  0  0  0
   -0.2156    4.4122    1.4812 H   0  0  0  0  0  0  0  0  0  0  0  0
    1.4431    2.5547    2.0585 H   0  0  0  0  0  0  0  0  0  0  0  0
    1.9645    4.1766    2.6139 H   0  0  0  0  0  0  0  0  0  0  0  0
    2.7060    3.4452    1.1276 H   0  0  0  0  0  0  0  0  0  0  0  0
    0.4950    5.9279   -0.4677 H   0  0  0  0  0  0  0  0  0  0  0  0
    3.5348    5.5491   -0.9799 H   0  0  0  0  0  0  0  0  0  0  0  0
    1.9650    7.0983   -2.0101 H   0  0  0  0  0  0  0  0  0  0  0  0
    3.6131    7.7970   -2.1466 H   0  0  0  0  0  0  0  0  0  0  0  0
    2.4747    8.4376   -0.9062 H   0  0  0  0  0  0  0  0  0  0  0  0
    4.5246    7.9425    0.6529 H   0  0  0  0  0  0  0  0  0  0  0  0
    5.1071    4.4015    0.0367 H   0  0  0  0  0  0  0  0  0  0  0  0
    7.3961    5.1373   -1.8875 H   0  0  0  0  0  0  0  0  0  0  0  0
    5.6449    5.0130   -2.3082 H   0  0  0  0  0  0  0  0  0  0  0  0
    6.5520    3.5474   -1.7793 H   0  0  0  0  0  0  0  0  0  0  0  0
    6.8265    3.4681    1.2336 H   0  0  0  0  0  0  0  0  0  0  0  0
    9.1111    3.4731   -0.7412 H   0  0  0  0  0  0  0  0  0  0  0  0
   10.4792    5.4483   -1.0202 H   0  0  0  0  0  0  0  0  0  0  0  0
   11.1266    5.3207    0.6631 H   0  0  0  0  0  0  0  0  0  0  0  0
   11.5568    4.0835   -0.5574 H   0  0  0  0  0  0  0  0  0  0  0  0
   10.2547    3.2021    2.0805 H   0  0  0  0  0  0  0  0  0  0  0  0
    8.7014    1.3696   -0.9351 H   0  0  0  0  0  0  0  0  0  0  0  0
   11.1400    1.8850   -1.2761 H   0  0  0  0  0  0  0  0  0  0  0  0
   10.6165    0.4389   -2.1837 H   0  0  0  0  0  0  0  0  0  0  0  0
   11.5657    0.2541   -0.6468 H   0  0  0  0  0  0  0  0  0  0  0  0
    8.0291   -0.6499    0.3103 H   0  0  0  0  0  0  0  0  0  0  0  0
    9.9784   -3.7979    0.0978 H   0  0  0  0  0  0  0  0  0  0  0  0
   11.4337   -1.4906    1.5244 H   0  0  0  0  0  0  0  0  0  0  0  0
   11.5982   -3.2533    1.8908 H   0  0  0  0  0  0  0  0  0  0  0  0
   12.1181   -2.6169    0.2894 H   0  0  0  0  0  0  0  0  0  0  0  0
    9.1842   -2.1465    2.4662 H   0  0  0  0  0  0  0  0  0  0  0  0
    7.7997   -3.9845   -0.5064 H   0  0  0  0  0  0  0  0  0  0  0  0
    7.3978   -6.3911   -0.0346 H   0  0  0  0  0  0  0  0  0  0  0  0
    8.7080   -5.7748    1.0284 H   0  0  0  0  0  0  0  0  0  0  0  0
    7.0434   -6.0226    1.6953 H   0  0  0  0  0  0  0  0  0  0  0  0
    5.2622   -3.3845    0.6238 H   0  0  0  0  0  0  0  0  0  0  0  0
  1  2  1  0
  2  3  2  0
  2  4  1  0
  4  5  1  0
  5  6  1  0
  6  7  1  0
  7  8  1  0
  8  9  1  0
  9 10  1  0
 10 11  2  0
 11 12  1  0
 12 13  2  0
 13 14  1  0
 13 15  1  0
 15 16  1  0
 16 17  1  0
 17 18  1  0
 18 19  1  0
 19 20  1  0
 19 21  2  0
 18 22  1  0
 22 23  1  0
 23 24  2  0
 23 25  1  0
 25 26  1  0
 25 27  1  0
 27 28  1  0
 28 29  2  0
 28 30  1  0
 30 31  1  0
 30 32  1  0
 32 33  1  0
 33 34  2  0
 33 35  1  0
 35 36  1  0
 35 37  1  0
 37 38  1  0
 38 39  2  0
 38 40  1  0
 40 41  1  0
 40 42  1  0
 42 43  1  0
 43 44  2  0
 43 45  1  0
 45 46  1  0
 45 47  1  0
 47 48  1  0
 48 49  2  0
 48 50  1  0
 50 51  1  0
 51 52  1  0
 52 53  1  0
 50 54  1  0
 54 55  1  0
 55 56  2  0
 55 57  1  0
 57 58  1  0
 57 59  1  0
 59 60  1  0
 60 61  2  0
 60 62  1  0
 62 63  1  0
 62 64  1  0
 64 65  1  0
 65 66  2  0
 65 67  1  0
 67 68  1  0
 67 69  1  0
 69 70  1  0
 70 71  2  0
 70 72  1  0
 72 73  1  0
 72 74  1  0
 74 75  1  0
 75 76  2  0
 75 77  1  0
 77 78  1  0
 77 79  1  0
 79 80  1  0
 80 81  2  0
 80 82  1  0
 82 83  1  0
 82 84  1  0
 84 85  1  0
 85 86  2  0
 85 87  1  0
 87 88  1  0
 87 89  1  0
 89 90  1  0
 90 91  2  0
 90  5  1  0
 14  9  2  0
 53 11  1  0
  1 92  1  0
  1 93  1  0
  1 94  1  0
  4 95  1  0
  5 96  1  6
  6 97  1  0
  6 98  1  0
  8 99  1  0
  8100  1  0
 10101  1  0
 12102  1  0
 14103  1  0
 15104  1  0
 15105  1  0
 17106  1  0
 17107  1  0
 18108  1  6
 20109  1  0
 20110  1  0
 22111  1  0
 25112  1  6
 26113  1  0
 26114  1  0
 26115  1  0
 27116  1  0
 30117  1  6
 31118  1  0
 31119  1  0
 31120  1  0
 32121  1  0
 35122  1  6
 36123  1  0
 36124  1  0
 36125  1  0
 37126  1  0
 40127  1  1
 41128  1  0
 41129  1  0
 41130  1  0
 42131  1  0
 45132  1  6
 46133  1  0
 46134  1  0
 46135  1  0
 47136  1  0
 50137  1  1
 51138  1  0
 51139  1  0
 53140  1  0
 53141  1  0
 54142  1  0
 57143  1  1
 58144  1  0
 58145  1  0
 58146  1  0
 59147  1  0
 62148  1  6
 63149  1  0
 63150  1  0
 63151  1  0
 64152  1  0
 67153  1  1
 68154  1  0
 68155  1  0
 68156  1  0
 69157  1  0
 72158  1  6
 73159  1  0
 73160  1  0
 73161  1  0
 74162  1  0
 77163  1  6
 78164  1  0
 78165  1  0
 78166  1  0
 79167  1  0
 82168  1  6
 83169  1  0
 83170  1  0
 83171  1  0
 84172  1  0
 87173  1  6
 88174  1  0
 88175  1  0
 88176  1  0
 89177  1  0
M  END
