
     RDKit          3D

177179  0  0  0  0  0  0  0  0999 V2000
   -4.0126    9.8636    1.2152 C   0  0  0  0  0  0  0  0  0  0  0  0
   -4.3598    8.5673    0.5707 C   0  0  0  0  0  0  0  0  0  0  0  0
   -4.9744    8.5690   -0.5294 O   0  0  0  0  0  0  0  0  0  0  0  0
   -3.9627    7.3331    1.1887 N   0  0  0  0  0  0  0  0  0  0  0  0
   -4.2822    6.0009    0.6522 C   0  0  2  0  0  0  0  0  0  0  0  0
   -3.5975    5.7902   -0.7143 C   0  0  0  0  0  0  0  0  0  0  0  0
   -1.8305    6.2781   -0.7108 S   0  0  0  0  0  0  0  0  0  0  0  0
   -1.2466    4.9832    0.4447 C   0  0  0  0  0  0  0  0  0  0  0  0
    0.0690    4.4333   -0.0358 C   0  0  0  0  0  0  0  0  0  0  0  0
    0.1154    3.1542   -0.6164 C   0  0  0  0  0  0  0  0  0  0  0  0
    1.3261    2.6312   -1.1054 C   0  0  0  0  0  0  0  0  0  0  0  0
    2.4890    3.4223   -1.0224 C   0  0  0  0  0  0  0  0  0  0  0  0
    2.4365    4.7225   -0.4835 C   0  0  0  0  0  0  0  0  0  0  0  0
    1.2297    5.2133    0.0306 C   0  0  0  0  0  0  0  0  0  0  0  0
    3.6504    5.6150   -0.5261 C   0  0  0  0  0  0  0  0  0  0  0  0
    4.3137    5.8436    1.1607 S   0  0  0  0  0  0  0  0  0  0  0  0
    5.8769    4.9151    0.9403 C   0  0  0  0  0  0  0  0  0  0  0  0
    6.9093    5.6626    0.0543 C   0  0  1  0  0  0  0  0  0  0  0  0
    7.1162    7.0799    0.5529 C   0  0  0  0  0  0  0  0  0  0  0  0
    6.5153    8.1810   -0.1304 N   0  0  0  0  0  0  0  0  0  0  0  0
    7.7476    7.2822    1.6218 O   0  0  0  0  0  0  0  0  0  0  0  0
    8.1806    4.9347    0.0448 N   0  0  0  0  0  0  0  0  0  0  0  0
    8.3107    3.6352   -0.5714 C   0  0  0  0  0  0  0  0  0  0  0  0
    7.4085    3.2164   -1.3460 O   0  0  0  0  0  0  0  0  0  0  0  0
    9.4538    2.7004   -0.2404 C   0  0  1  0  0  0  0  0  0  0  0  0
   10.7239    3.4208    0.2227 C   0  0  0  0  0  0  0  0  0  0  0  0
    9.0214    1.7557    0.7884 N   0  0  0  0  0  0  0  0  0  0  0  0
    8.6440    0.4109    0.4600 C   0  0  0  0  0  0  0  0  0  0  0  0
    7.4192    0.1289    0.4165 O   0  0  0  0  0  0  0  0  0  0  0  0
    9.6582   -0.6923    0.2228 C   0  0  1  0  0  0  0  0  0  0  0  0
   11.1088   -0.1855    0.2650 C   0  0  0  0  0  0  0  0  0  0  0  0
    9.4854   -1.7516    1.2347 N   0  0  0  0  0  0  0  0  0  0  0  0
   10.1333   -3.0386    1.2094 C   0  0  0  0  0  0  0  0  0  0  0  0
   10.2055   -3.6884    2.2837 O   0  0  0  0  0  0  0  0  0  0  0  0
   10.6472   -3.6781   -0.0629 C   0  0  1  0  0  0  0  0  0  0  0  0
   12.1158   -4.0897    0.0880 C   0  0  0  0  0  0  0  0  0  0  0  0
    9.8279   -4.8484   -0.3659 N   0  0  0  0  0  0  0  0  0  0  0  0
    8.5033   -4.7234   -0.8890 C   0  0  0  0  0  0  0  0  0  0  0  0
    8.2602   -3.8605   -1.7727 O   0  0  0  0  0  0  0  0  0  0  0  0
    7.3569   -5.5284   -0.3247 C   0  0  1  0  0  0  0  0  0  0  0  0
    7.8167   -6.8384    0.3322 C   0  0  0  0  0  0  0  0  0  0  0  0
    6.6565   -4.7050    0.6666 N   0  0  0  0  0  0  0  0  0  0  0  0
    5.5480   -3.8384    0.3685 C   0  0  0  0  0  0  0  0  0  0  0  0
    5.2706   -2.9197    1.1876 O   0  0  0  0  0  0  0  0  0  0  0  0
    4.6483   -4.0452   -0.8325 C   0  0  1  0  0  0  0  0  0  0  0  0
    3.7349   -5.2589   -0.5960 C   0  0  0  0  0  0  0  0  0  0  0  0
    3.8931   -2.8240   -1.1244 N   0  0  0  0  0  0  0  0  0  0  0  0
    2.4839   -2.6572   -0.9214 C   0  0  0  0  0  0  0  0  0  0  0  0
    1.6885   -2.9367   -1.8587 O   0  0  0  0  0  0  0  0  0  0  0  0
    1.9931   -1.9595    0.3301 C   0  0  1  0  0  0  0  0  0  0  0  0
    1.8997   -0.4324    0.1201 C   0  0  0  0  0  0  0  0  0  0  0  0
    0.5048   -0.0083   -0.9859 S   0  0  0  0  0  0  0  0  0  0  0  0
    1.3242    1.3462   -1.8890 C   0  0  0  0  0  0  0  0  0  0  0  0
    0.7453   -2.5061    0.8876 N   0  0  0  0  0  0  0  0  0  0  0  0
   -0.1835   -3.3585    0.1992 C   0  0  0  0  0  0  0  0  0  0  0  0
   -1.0482   -2.8386   -0.5677 O   0  0  0  0  0  0  0  0  0  0  0  0
   -0.0974   -4.8617    0.3457 C   0  0  1  0  0  0  0  0  0  0  0  0
    0.2192   -5.2686    1.7889 C   0  0  0  0  0  0  0  0  0  0  0  0
   -1.3147   -5.5438   -0.1166 N   0  0  0  0  0  0  0  0  0  0  0  0
   -2.5790   -5.4547    0.5666 C   0  0  0  0  0  0  0  0  0  0  0  0
   -2.8805   -4.4082    1.2056 O   0  0  0  0  0  0  0  0  0  0  0  0
   -3.5212   -6.6319    0.5363 C   0  0  1  0  0  0  0  0  0  0  0  0
   -4.3367   -6.7463    1.8231 C   0  0  0  0  0  0  0  0  0  0  0  0
   -4.4190   -6.6164   -0.6314 N   0  0  0  0  0  0  0  0  0  0  0  0
   -5.2352   -5.4743   -0.9780 C   0  0  0  0  0  0  0  0  0  0  0  0
   -4.6974   -4.3341   -1.0747 O   0  0  0  0  0  0  0  0  0  0  0  0
   -6.7158   -5.5896   -1.2807 C   0  0  1  0  0  0  0  0  0  0  0  0
   -7.2383   -7.0240   -1.3783 C   0  0  0  0  0  0  0  0  0  0  0  0
   -7.4801   -4.8686   -0.2513 N   0  0  0  0  0  0  0  0  0  0  0  0
   -8.2841   -3.7330   -0.6031 C   0  0  0  0  0  0  0  0  0  0  0  0
   -7.7463   -2.7475   -1.1823 O   0  0  0  0  0  0  0  0  0  0  0  0
   -9.7343   -3.6504   -0.1965 C   0  0  1  0  0  0  0  0  0  0  0  0
  -10.4053   -5.0287   -0.1348 C   0  0  0  0  0  0  0  0  0  0  0  0
   -9.8583   -2.9830    1.1084 N   0  0  0  0  0  0  0  0  0  0  0  0
  -10.4444   -1.6843    1.3038 C   0  0  0  0  0  0  0  0  0  0  0  0
  -10.8314   -1.3600    2.4591 O   0  0  0  0  0  0  0  0  0  0  0  0
  -10.5839   -0.6840    0.1792 C   0  0  1  0  0  0  0  0  0  0  0  0
  -12.0010   -0.6930   -0.3844 C   0  0  0  0  0  0  0  0  0  0  0  0
  -10.2418    0.6598    0.6408 N   0  0  0  0  0  0  0  0  0  0  0  0
   -8.9638    1.2326    0.3624 C   0  0  0  0  0  0  0  0  0  0  0  0
   -7.9409    0.7662    0.9397 O   0  0  0  0  0  0  0  0  0  0  0  0
   -8.8337    2.4179   -0.5490 C   0  0  1  0  0  0  0  0  0  0  0  0
   -9.5739    2.1688   -1.8693 C   0  0  0  0  0  0  0  0  0  0  0  0
   -9.3613    3.6242    0.1012 N   0  0  0  0  0  0  0  0  0  0  0  0
   -8.8033    4.9429   -0.0478 C   0  0  0  0  0  0  0  0  0  0  0  0
   -9.2730    5.8773    0.6579 O   0  0  0  0  0  0  0  0  0  0  0  0
   -7.6661    5.2253   -1.0096 C   0  0  1  0  0  0  0  0  0  0  0  0
   -7.6951    6.6555   -1.5635 C   0  0  0  0  0  0  0  0  0  0  0  0
   -6.3763    4.9322   -0.3852 N   0  0  0  0  0  0  0  0  0  0  0  0
   -5.7778    5.7918    0.6039 C   0  0  0  0  0  0  0  0  0  0  0  0
   -6.5034    6.3510    1.4713 O   0  0  0  0  0  0  0  0  0  0  0  0
   -4.3690   10.7195    0.5974 H   0  0  0  0  0  0  0  0  0  0  0  0
   -2.9084    9.9438    1.3356 H   0  0  0  0  0  0  0  0  0  0  0  0
   -4.4930    9.9158    2.2156 H   0  0  0  0  0  0  0  0  0  0  0  0
   -3.4322    7.3811    2.0926 H   0  0  0  0  0  0  0  0  0  0  0  0
   -3.8798    5.2484    1.3586 H   0  0  0  0  0  0  0  0  0  0  0  0
   -4.1080    6.3763   -1.5064 H   0  0  0  0  0  0  0  0  0  0  0  0
   -3.6537    4.7217   -1.0180 H   0  0  0  0  0  0  0  0  0  0  0  0
   -1.9824    4.1563    0.5317 H   0  0  0  0  0  0  0  0  0  0  0  0
   -1.1263    5.4275    1.4551 H   0  0  0  0  0  0  0  0  0  0  0  0
   -0.7899    2.5723   -0.7191 H   0  0  0  0  0  0  0  0  0  0  0  0
    3.4337    3.0390   -1.4059 H   0  0  0  0  0  0  0  0  0  0  0  0
    1.1845    6.2168    0.4433 H   0  0  0  0  0  0  0  0  0  0  0  0
    3.3541    6.6101   -0.9192 H   0  0  0  0  0  0  0  0  0  0  0  0
    4.4072    5.2017   -1.2183 H   0  0  0  0  0  0  0  0  0  0  0  0
    6.3266    4.7534    1.9458 H   0  0  0  0  0  0  0  0  0  0  0  0
    5.6504    3.9108    0.5247 H   0  0  0  0  0  0  0  0  0  0  0  0
    6.5376    5.7084   -0.9889 H   0  0  0  0  0  0  0  0  0  0  0  0
    6.4840    9.1136    0.3400 H   0  0  0  0  0  0  0  0  0  0  0  0
    5.9393    8.0325   -0.9923 H   0  0  0  0  0  0  0  0  0  0  0  0
    9.0571    5.4398    0.3211 H   0  0  0  0  0  0  0  0  0  0  0  0
    9.7074    2.1498   -1.1762 H   0  0  0  0  0  0  0  0  0  0  0  0
   11.0417    4.1694   -0.5380 H   0  0  0  0  0  0  0  0  0  0  0  0
   10.5462    3.9313    1.1947 H   0  0  0  0  0  0  0  0  0  0  0  0
   11.5517    2.6922    0.3559 H   0  0  0  0  0  0  0  0  0  0  0  0
    8.6705    2.1456    1.6935 H   0  0  0  0  0  0  0  0  0  0  0  0
    9.4488   -1.1035   -0.7838 H   0  0  0  0  0  0  0  0  0  0  0  0
   11.3109    0.3391    1.2267 H   0  0  0  0  0  0  0  0  0  0  0  0
   11.3070    0.5028   -0.5882 H   0  0  0  0  0  0  0  0  0  0  0  0
   11.8228   -1.0263    0.1724 H   0  0  0  0  0  0  0  0  0  0  0  0
    8.9745   -1.5016    2.1182 H   0  0  0  0  0  0  0  0  0  0  0  0
   10.6002   -2.9815   -0.9222 H   0  0  0  0  0  0  0  0  0  0  0  0
   12.4825   -4.5312   -0.8642 H   0  0  0  0  0  0  0  0  0  0  0  0
   12.2369   -4.8448    0.8896 H   0  0  0  0  0  0  0  0  0  0  0  0
   12.7498   -3.2102    0.3278 H   0  0  0  0  0  0  0  0  0  0  0  0
   10.2568   -5.8104   -0.3286 H   0  0  0  0  0  0  0  0  0  0  0  0
    6.6810   -5.8183   -1.1541 H   0  0  0  0  0  0  0  0  0  0  0  0
    6.9296   -7.3807    0.7176 H   0  0  0  0  0  0  0  0  0  0  0  0
    8.3284   -7.4837   -0.4172 H   0  0  0  0  0  0  0  0  0  0  0  0
    8.5012   -6.6407    1.1820 H   0  0  0  0  0  0  0  0  0  0  0  0
    7.1319   -4.5611    1.5869 H   0  0  0  0  0  0  0  0  0  0  0  0
    5.2665   -4.2595   -1.7275 H   0  0  0  0  0  0  0  0  0  0  0  0
    3.0556   -5.4117   -1.4653 H   0  0  0  0  0  0  0  0  0  0  0  0
    3.1302   -5.1194    0.3275 H   0  0  0  0  0  0  0  0  0  0  0  0
    4.3472   -6.1752   -0.4778 H   0  0  0  0  0  0  0  0  0  0  0  0
    4.4052   -2.0171   -1.5591 H   0  0  0  0  0  0  0  0  0  0  0  0
    2.7785   -2.1265    1.0983 H   0  0  0  0  0  0  0  0  0  0  0  0
    1.7403    0.0671    1.0934 H   0  0  0  0  0  0  0  0  0  0  0  0
    2.8622   -0.0699   -0.2809 H   0  0  0  0  0  0  0  0  0  0  0  0
    2.3460    1.0536   -2.2004 H   0  0  0  0  0  0  0  0  0  0  0  0
    0.7469    1.5015   -2.8200 H   0  0  0  0  0  0  0  0  0  0  0  0
    0.4756   -2.2117    1.8481 H   0  0  0  0  0  0  0  0  0  0  0  0
    0.7456   -5.2037   -0.2850 H   0  0  0  0  0  0  0  0  0  0  0  0
    1.2241   -4.9052    2.0838 H   0  0  0  0  0  0  0  0  0  0  0  0
    0.2094   -6.3800    1.8575 H   0  0  0  0  0  0  0  0  0  0  0  0
   -0.5388   -4.8606    2.4904 H   0  0  0  0  0  0  0  0  0  0  0  0
   -1.2143   -6.2701   -0.8581 H   0  0  0  0  0  0  0  0  0  0  0  0
   -2.8914   -7.5522    0.4667 H   0  0  0  0  0  0  0  0  0  0  0  0
   -5.0291   -5.8880    1.9329 H   0  0  0  0  0  0  0  0  0  0  0  0
   -3.6548   -6.7852    2.7009 H   0  0  0  0  0  0  0  0  0  0  0  0
   -4.9363   -7.6822    1.8029 H   0  0  0  0  0  0  0  0  0  0  0  0
   -4.7197   -7.5532   -0.9659 H   0  0  0  0  0  0  0  0  0  0  0  0
   -6.8805   -5.1110   -2.2692 H   0  0  0  0  0  0  0  0  0  0  0  0
   -8.3340   -7.0152   -1.5792 H   0  0  0  0  0  0  0  0  0  0  0  0
   -7.0710   -7.5739   -0.4246 H   0  0  0  0  0  0  0  0  0  0  0  0
   -6.7384   -7.5561   -2.2130 H   0  0  0  0  0  0  0  0  0  0  0  0
   -7.5652   -5.2698    0.7129 H   0  0  0  0  0  0  0  0  0  0  0  0
  -10.2776   -3.0872   -0.9794 H   0  0  0  0  0  0  0  0  0  0  0  0
  -10.3587   -5.5249   -1.1247 H   0  0  0  0  0  0  0  0  0  0  0  0
   -9.9160   -5.6733    0.6220 H   0  0  0  0  0  0  0  0  0  0  0  0
  -11.4680   -4.9110    0.1541 H   0  0  0  0  0  0  0  0  0  0  0  0
   -9.5405   -3.5080    1.9552 H   0  0  0  0  0  0  0  0  0  0  0  0
   -9.8821   -0.9539   -0.6447 H   0  0  0  0  0  0  0  0  0  0  0  0
  -12.7474   -0.3743    0.3837 H   0  0  0  0  0  0  0  0  0  0  0  0
  -12.0616    0.0152   -1.2432 H   0  0  0  0  0  0  0  0  0  0  0  0
  -12.2740   -1.7060   -0.7584 H   0  0  0  0  0  0  0  0  0  0  0  0
  -10.9779    1.2506    1.0946 H   0  0  0  0  0  0  0  0  0  0  0  0
   -7.7514    2.5419   -0.7797 H   0  0  0  0  0  0  0  0  0  0  0  0
   -9.2056    1.2356   -2.3476 H   0  0  0  0  0  0  0  0  0  0  0  0
   -9.4009    3.0081   -2.5751 H   0  0  0  0  0  0  0  0  0  0  0  0
  -10.6688    2.0865   -1.6933 H   0  0  0  0  0  0  0  0  0  0  0  0
  -10.2415    3.5415    0.6609 H   0  0  0  0  0  0  0  0  0  0  0  0
   -7.7827    4.5654   -1.8911 H   0  0  0  0  0  0  0  0  0  0  0  0
   -7.6492    7.4064   -0.7490 H   0  0  0  0  0  0  0  0  0  0  0  0
   -8.6157    6.8279   -2.1601 H   0  0  0  0  0  0  0  0  0  0  0  0
   -6.8170    6.8099   -2.2303 H   0  0  0  0  0  0  0  0  0  0  0  0
   -5.8082    4.1623   -0.8017 H   0  0  0  0  0  0  0  0  0  0  0  0
  1  2  1  0
  2  3  2  0
  2  4  1  0
  4  5  1  0
  5  6  1  0
  6  7  1  0
  7  8  1  0
  8  9  1  0
  9 10  1  0
 10 11  2  0
 11 12  1  0
 12 13  2  0
 13 14  1  0
 13 15  1  0
 15 16  1  0
 16 17  1  0
 17 18  1  0
 18 19  1  0
 19 20  1  0
 19 21  2  0
 18 22  1  0
 22 23  1  0
 23 24  2  0
 23 25  1  0
 25 26  1  0
 25 27  1  0
 27 28  1  0
 28 29  2  0
 28 30  1  0
 30 31  1  0
 30 32  1  0
 32 33  1  0
 33 34  2  0
 33 35  1  0
 35 36  1  0
 35 37  1  0
 37 38  1  0
 38 39  2  0
 38 40  1  0
 40 41  1  0
 40 42  1  0
 42 43  1  0
 43 44  2  0
 43 45  1  0
 45 46  1  0
 45 47  1  0
 47 48  1  0
 48 49  2  0
 48 50  1  0
 50 51  1  0
 51 52  1  0
 52 53  1  0
 50 54  1  0
 54 55  1  0
 55 56  2  0
 55 57  1  0
 57 58  1  0
 57 59  1  0
 59 60  1  0
 60 61  2  0
 60 62  1  0
 62 63  1  0
 62 64  1  0
 64 65  1  0
 65 66  2  0
 65 67  1  0
 67 68  1  0
 67 69  1  0
 69 70  1  0
 70 71  2  0
 70 72  1  0
 72 73  1  0
 72 74  1  0
 74 75  1  0
 75 76  2  0
 75 77  1  0
 77 78  1  0
 77 79  1  0
 79 80  1  0
 80 81  2  0
 80 82  1  0
 82 83  1  0
 82 84  1  0
 84 85  1  0
 85 86  2  0
 85 87  1  0
 87 88  1  0
 87 89  1  0
 89 90  1  0
 90 91  2  0
 90  5  1  0
 14  9  2  0
 53 11  1  0
  1 92  1  0
  1 93  1  0
  1 94  1  0
  4 95  1  0
  5 96  1  1
  6 97  1  0
  6 98  1  0
  8 99  1  0
  8100  1  0
 10101  1  0
 12102  1  0
 14103  1  0
 15104  1  0
 15105  1  0
 17106  1  0
 17107  1  0
 18108  1  6
 20109  1  0
 20110  1  0
 22111  1  0
 25112  1  6
 26113  1  0
 26114  1  0
 26115  1  0
 27116  1  0
 30117  1  6
 31118  1  0
 31119  1  0
 31120  1  0
 32121  1  0
 35122  1  6
 36123  1  0
 36124  1  0
 36125  1  0
 37126  1  0
 40127  1  6
 41128  1  0
 41129  1  0
 41130  1  0
 42131  1  0
 45132  1  6
 46133  1  0
 46134  1  0
 46135  1  0
 47136  1  0
 50137  1  1
 51138  1  0
 51139  1  0
 53140  1  0
 53141  1  0
 54142  1  0
 57143  1  6
 58144  1  0
 58145  1  0
 58146  1  0
 59147  1  0
 62148  1  6
 63149  1  0
 63150  1  0
 63151  1  0
 64152  1  0
 67153  1  6
 68154  1  0
 68155  1  0
 68156  1  0
 69157  1  0
 72158  1  6
 73159  1  0
 73160  1  0
 73161  1  0
 74162  1  0
 77163  1  6
 78164  1  0
 78165  1  0
 78166  1  0
 79167  1  0
 82168  1  6
 83169  1  0
 83170  1  0
 83171  1  0
 84172  1  0
 87173  1  6
 88174  1  0
 88175  1  0
 88176  1  0
 89177  1  0
M  END
