
     RDKit          3D

177179  0  0  0  0  0  0  0  0999 V2000
    4.2414    7.9373    2.5713 C   0  0  0  0  0  0  0  0  0  0  0  0
    4.4805    7.8080    1.0977 C   0  0  0  0  0  0  0  0  0  0  0  0
    5.0436    8.7571    0.4883 O   0  0  0  0  0  0  0  0  0  0  0  0
    4.0844    6.6379    0.3626 N   0  0  0  0  0  0  0  0  0  0  0  0
    3.4647    5.4589    0.9771 C   0  0  1  0  0  0  0  0  0  0  0  0
    2.5537    4.7394   -0.0295 C   0  0  0  0  0  0  0  0  0  0  0  0
    1.1519    5.8123   -0.5143 S   0  0  0  0  0  0  0  0  0  0  0  0
    0.0071    5.2634    0.8020 C   0  0  0  0  0  0  0  0  0  0  0  0
   -0.6572    3.9675    0.4202 C   0  0  0  0  0  0  0  0  0  0  0  0
   -1.4757    3.9086   -0.7174 C   0  0  0  0  0  0  0  0  0  0  0  0
   -2.0972    2.7064   -1.0890 C   0  0  0  0  0  0  0  0  0  0  0  0
   -1.9179    1.5659   -0.2940 C   0  0  0  0  0  0  0  0  0  0  0  0
   -1.1117    1.6171    0.8546 C   0  0  0  0  0  0  0  0  0  0  0  0
   -0.4767    2.8174    1.2009 C   0  0  0  0  0  0  0  0  0  0  0  0
   -0.9429    0.4001    1.7238 C   0  0  0  0  0  0  0  0  0  0  0  0
    0.5717   -0.5254    1.2710 S   0  0  0  0  0  0  0  0  0  0  0  0
   -0.2114   -1.6894    0.0837 C   0  0  0  0  0  0  0  0  0  0  0  0
   -0.4598   -3.0950    0.6620 C   0  0  1  0  0  0  0  0  0  0  0  0
    0.8153   -3.7732    0.9305 N   0  0  0  0  0  0  0  0  0  0  0  0
    0.9649   -5.2055    0.9390 C   0  0  0  0  0  0  0  0  0  0  0  0
    1.6258   -5.7386    1.8685 O   0  0  0  0  0  0  0  0  0  0  0  0
    0.4130   -6.0944   -0.1495 C   0  0  1  0  0  0  0  0  0  0  0  0
   -1.0082   -6.5613    0.1813 C   0  0  0  0  0  0  0  0  0  0  0  0
    0.4597   -5.4234   -1.4567 N   0  0  0  0  0  0  0  0  0  0  0  0
    1.6755   -5.1148   -2.1621 C   0  0  0  0  0  0  0  0  0  0  0  0
    1.6056   -4.3927   -3.1943 O   0  0  0  0  0  0  0  0  0  0  0  0
    3.0098   -5.7305   -1.7828 C   0  0  1  0  0  0  0  0  0  0  0  0
    3.1843   -7.0692   -2.5042 C   0  0  0  0  0  0  0  0  0  0  0  0
    4.1189   -4.8276   -2.1224 N   0  0  0  0  0  0  0  0  0  0  0  0
    5.4200   -5.0181   -1.5579 C   0  0  0  0  0  0  0  0  0  0  0  0
    6.2581   -5.7236   -2.1852 O   0  0  0  0  0  0  0  0  0  0  0  0
    5.8458   -4.2796   -0.3076 C   0  0  1  0  0  0  0  0  0  0  0  0
    4.7975   -4.3901    0.8010 C   0  0  0  0  0  0  0  0  0  0  0  0
    7.1229   -4.8088    0.1865 N   0  0  0  0  0  0  0  0  0  0  0  0
    8.2711   -3.9989    0.4810 C   0  0  0  0  0  0  0  0  0  0  0  0
    9.4148   -4.5242    0.4124 O   0  0  0  0  0  0  0  0  0  0  0  0
    8.1339   -2.5576    0.9222 C   0  0  1  0  0  0  0  0  0  0  0  0
    9.1660   -2.1884    1.9921 C   0  0  0  0  0  0  0  0  0  0  0  0
    8.2292   -1.6318   -0.2106 N   0  0  0  0  0  0  0  0  0  0  0  0
    9.3895   -1.5635   -1.0483 C   0  0  0  0  0  0  0  0  0  0  0  0
    9.7273   -2.5653   -1.7357 O   0  0  0  0  0  0  0  0  0  0  0  0
   10.1724   -0.2817   -1.1340 C   0  0  1  0  0  0  0  0  0  0  0  0
   11.6789   -0.5573   -1.1368 C   0  0  0  0  0  0  0  0  0  0  0  0
    9.8010    0.4479   -2.3492 N   0  0  0  0  0  0  0  0  0  0  0  0
    9.5573    1.8645   -2.4115 C   0  0  0  0  0  0  0  0  0  0  0  0
    9.7755    2.4603   -3.5002 O   0  0  0  0  0  0  0  0  0  0  0  0
    9.0703    2.6583   -1.2123 C   0  0  1  0  0  0  0  0  0  0  0  0
   10.2670    3.2289   -0.4495 C   0  0  0  0  0  0  0  0  0  0  0  0
    8.1757    3.7529   -1.6285 N   0  0  0  0  0  0  0  0  0  0  0  0
    7.3968    4.5668   -0.7329 C   0  0  0  0  0  0  0  0  0  0  0  0
    7.0040    5.6958   -1.1395 O   0  0  0  0  0  0  0  0  0  0  0  0
    6.9282    4.0925    0.6238 C   0  0  1  0  0  0  0  0  0  0  0  0
    7.3900    5.0813    1.7085 C   0  0  0  0  0  0  0  0  0  0  0  0
    5.4678    3.9295    0.5793 N   0  0  0  0  0  0  0  0  0  0  0  0
    4.5416    4.5402    1.4883 C   0  0  0  0  0  0  0  0  0  0  0  0
    4.6265    4.3113    2.7264 O   0  0  0  0  0  0  0  0  0  0  0  0
   -1.3002   -3.0756    1.9173 C   0  0  0  0  0  0  0  0  0  0  0  0
   -0.7696   -2.7944    3.0272 O   0  0  0  0  0  0  0  0  0  0  0  0
   -2.6727   -3.4772    1.8835 N   0  0  0  0  0  0  0  0  0  0  0  0
   -3.7146   -2.5679    1.4039 C   0  0  2  0  0  0  0  0  0  0  0  0
   -4.2082   -1.7118    2.5794 C   0  0  0  0  0  0  0  0  0  0  0  0
   -4.8090   -3.3734    0.7423 C   0  0  0  0  0  0  0  0  0  0  0  0
   -4.4930   -4.1301   -0.2158 O   0  0  0  0  0  0  0  0  0  0  0  0
   -6.1840   -3.3080    1.1735 N   0  0  0  0  0  0  0  0  0  0  0  0
   -7.1329   -4.4107    0.9869 C   0  0  2  0  0  0  0  0  0  0  0  0
   -6.6383   -5.6610    1.7272 C   0  0  0  0  0  0  0  0  0  0  0  0
   -7.3740   -4.6504   -0.4881 C   0  0  0  0  0  0  0  0  0  0  0  0
   -7.0206   -5.7439   -1.0140 O   0  0  0  0  0  0  0  0  0  0  0  0
   -7.9341   -3.6297   -1.3365 N   0  0  0  0  0  0  0  0  0  0  0  0
   -8.9302   -2.6450   -0.8940 C   0  0  2  0  0  0  0  0  0  0  0  0
  -10.3237   -3.1821   -1.2450 C   0  0  0  0  0  0  0  0  0  0  0  0
   -8.6779   -1.3026   -1.5537 C   0  0  0  0  0  0  0  0  0  0  0  0
   -8.0217   -1.2646   -2.6323 O   0  0  0  0  0  0  0  0  0  0  0  0
   -9.1210   -0.0584   -0.9818 N   0  0  0  0  0  0  0  0  0  0  0  0
  -10.2689    0.0831   -0.0725 C   0  0  2  0  0  0  0  0  0  0  0  0
  -11.5266    0.3650   -0.9042 C   0  0  0  0  0  0  0  0  0  0  0  0
  -10.0611    1.1951    0.9292 C   0  0  0  0  0  0  0  0  0  0  0  0
  -10.9566    1.4072    1.7907 O   0  0  0  0  0  0  0  0  0  0  0  0
   -8.8862    2.0239    0.9158 N   0  0  0  0  0  0  0  0  0  0  0  0
   -8.9700    3.4488    1.2694 C   0  0  2  0  0  0  0  0  0  0  0  0
   -9.8661    4.2046    0.2795 C   0  0  0  0  0  0  0  0  0  0  0  0
   -7.5974    4.0834    1.3600 C   0  0  0  0  0  0  0  0  0  0  0  0
   -7.0722    4.2331    2.4952 O   0  0  0  0  0  0  0  0  0  0  0  0
   -6.9337    4.6447    0.2179 N   0  0  0  0  0  0  0  0  0  0  0  0
   -6.5713    3.8543   -0.9610 C   0  0  1  0  0  0  0  0  0  0  0  0
   -6.9788    4.5842   -2.2153 C   0  0  0  0  0  0  0  0  0  0  0  0
   -6.5481    5.9237   -2.4640 N   0  0  0  0  0  0  0  0  0  0  0  0
   -7.7090    4.0049   -3.0648 O   0  0  0  0  0  0  0  0  0  0  0  0
   -5.0597    3.5772   -0.9492 C   0  0  0  0  0  0  0  0  0  0  0  0
   -4.6520    2.1626   -2.0380 S   0  0  0  0  0  0  0  0  0  0  0  0
   -2.9123    2.6346   -2.3540 C   0  0  0  0  0  0  0  0  0  0  0  0
    4.6258    8.9111    2.9451 H   0  0  0  0  0  0  0  0  0  0  0  0
    4.7634    7.1208    3.1094 H   0  0  0  0  0  0  0  0  0  0  0  0
    3.1530    7.8880    2.7857 H   0  0  0  0  0  0  0  0  0  0  0  0
    4.3215    6.6061   -0.6545 H   0  0  0  0  0  0  0  0  0  0  0  0
    2.8288    5.7717    1.8318 H   0  0  0  0  0  0  0  0  0  0  0  0
    3.1247    4.5034   -0.9520 H   0  0  0  0  0  0  0  0  0  0  0  0
    2.1891    3.7812    0.3931 H   0  0  0  0  0  0  0  0  0  0  0  0
   -0.7757    6.0384    0.9321 H   0  0  0  0  0  0  0  0  0  0  0  0
    0.5439    5.1781    1.7716 H   0  0  0  0  0  0  0  0  0  0  0  0
   -1.6164    4.7992   -1.3189 H   0  0  0  0  0  0  0  0  0  0  0  0
   -2.4236    0.6471   -0.5665 H   0  0  0  0  0  0  0  0  0  0  0  0
    0.1577    2.8539    2.0822 H   0  0  0  0  0  0  0  0  0  0  0  0
   -0.8526    0.7095    2.7878 H   0  0  0  0  0  0  0  0  0  0  0  0
   -1.8417   -0.2440    1.6642 H   0  0  0  0  0  0  0  0  0  0  0  0
    0.4755   -1.7842   -0.7827 H   0  0  0  0  0  0  0  0  0  0  0  0
   -1.1548   -1.2768   -0.3211 H   0  0  0  0  0  0  0  0  0  0  0  0
   -1.0167   -3.6420   -0.1216 H   0  0  0  0  0  0  0  0  0  0  0  0
    1.5280   -3.2414    1.4765 H   0  0  0  0  0  0  0  0  0  0  0  0
    1.0305   -7.0149   -0.2060 H   0  0  0  0  0  0  0  0  0  0  0  0
   -1.3351   -7.3140   -0.5693 H   0  0  0  0  0  0  0  0  0  0  0  0
   -1.0323   -7.0417    1.1826 H   0  0  0  0  0  0  0  0  0  0  0  0
   -1.7392   -5.7269    0.1699 H   0  0  0  0  0  0  0  0  0  0  0  0
   -0.4379   -5.1284   -1.9054 H   0  0  0  0  0  0  0  0  0  0  0  0
    3.0342   -5.9272   -0.6949 H   0  0  0  0  0  0  0  0  0  0  0  0
    3.2615   -6.9143   -3.6013 H   0  0  0  0  0  0  0  0  0  0  0  0
    4.1065   -7.5769   -2.1478 H   0  0  0  0  0  0  0  0  0  0  0  0
    2.3233   -7.7387   -2.2948 H   0  0  0  0  0  0  0  0  0  0  0  0
    4.1107   -4.3940   -3.0718 H   0  0  0  0  0  0  0  0  0  0  0  0
    5.9529   -3.2077   -0.5793 H   0  0  0  0  0  0  0  0  0  0  0  0
    3.8442   -3.9222    0.4780 H   0  0  0  0  0  0  0  0  0  0  0  0
    4.6216   -5.4555    1.0653 H   0  0  0  0  0  0  0  0  0  0  0  0
    5.1479   -3.8559    1.7103 H   0  0  0  0  0  0  0  0  0  0  0  0
    7.2220   -5.8460    0.2934 H   0  0  0  0  0  0  0  0  0  0  0  0
    7.1335   -2.4343    1.3945 H   0  0  0  0  0  0  0  0  0  0  0  0
    9.0010   -1.1406    2.3267 H   0  0  0  0  0  0  0  0  0  0  0  0
   10.1999   -2.2684    1.5939 H   0  0  0  0  0  0  0  0  0  0  0  0
    9.0659   -2.8608    2.8718 H   0  0  0  0  0  0  0  0  0  0  0  0
    7.6197   -0.7819   -0.1710 H   0  0  0  0  0  0  0  0  0  0  0  0
    9.9558    0.3107   -0.2206 H   0  0  0  0  0  0  0  0  0  0  0  0
   11.9686   -1.1384   -0.2331 H   0  0  0  0  0  0  0  0  0  0  0  0
   12.2360    0.4013   -1.1292 H   0  0  0  0  0  0  0  0  0  0  0  0
   11.9751   -1.1272   -2.0436 H   0  0  0  0  0  0  0  0  0  0  0  0
    9.9160   -0.0547   -3.2598 H   0  0  0  0  0  0  0  0  0  0  0  0
    8.5009    1.9603   -0.5659 H   0  0  0  0  0  0  0  0  0  0  0  0
   10.7932    3.9891   -1.0668 H   0  0  0  0  0  0  0  0  0  0  0  0
   10.9873    2.4309   -0.1789 H   0  0  0  0  0  0  0  0  0  0  0  0
    9.9265    3.7099    0.4916 H   0  0  0  0  0  0  0  0  0  0  0  0
    8.2441    4.1107   -2.6066 H   0  0  0  0  0  0  0  0  0  0  0  0
    7.3684    3.1106    0.8763 H   0  0  0  0  0  0  0  0  0  0  0  0
    8.4905    5.2197    1.6614 H   0  0  0  0  0  0  0  0  0  0  0  0
    6.9070    6.0721    1.5744 H   0  0  0  0  0  0  0  0  0  0  0  0
    7.1494    4.6909    2.7197 H   0  0  0  0  0  0  0  0  0  0  0  0
    5.0697    3.3711   -0.2111 H   0  0  0  0  0  0  0  0  0  0  0  0
   -2.9584   -4.2328    2.5493 H   0  0  0  0  0  0  0  0  0  0  0  0
   -3.2907   -1.8911    0.6310 H   0  0  0  0  0  0  0  0  0  0  0  0
   -4.8664   -0.8959    2.2141 H   0  0  0  0  0  0  0  0  0  0  0  0
   -4.7527   -2.3386    3.3184 H   0  0  0  0  0  0  0  0  0  0  0  0
   -3.3484   -1.2467    3.1067 H   0  0  0  0  0  0  0  0  0  0  0  0
   -6.5349   -2.4600    1.6723 H   0  0  0  0  0  0  0  0  0  0  0  0
   -8.1010   -4.1400    1.4623 H   0  0  0  0  0  0  0  0  0  0  0  0
   -6.5042   -5.4260    2.8063 H   0  0  0  0  0  0  0  0  0  0  0  0
   -7.3863   -6.4784    1.6448 H   0  0  0  0  0  0  0  0  0  0  0  0
   -5.6698   -6.0180    1.3179 H   0  0  0  0  0  0  0  0  0  0  0  0
   -7.8459   -3.7927   -2.3657 H   0  0  0  0  0  0  0  0  0  0  0  0
   -8.8651   -2.4984    0.2029 H   0  0  0  0  0  0  0  0  0  0  0  0
  -10.4440   -4.2115   -0.8429 H   0  0  0  0  0  0  0  0  0  0  0  0
  -11.1277   -2.5625   -0.8057 H   0  0  0  0  0  0  0  0  0  0  0  0
  -10.4582   -3.2223   -2.3477 H   0  0  0  0  0  0  0  0  0  0  0  0
   -8.8103    0.8092   -1.4804 H   0  0  0  0  0  0  0  0  0  0  0  0
  -10.4181   -0.8435    0.5101 H   0  0  0  0  0  0  0  0  0  0  0  0
  -12.4279    0.4044   -0.2530 H   0  0  0  0  0  0  0  0  0  0  0  0
  -11.4199    1.3326   -1.4443 H   0  0  0  0  0  0  0  0  0  0  0  0
  -11.6768   -0.4330   -1.6598 H   0  0  0  0  0  0  0  0  0  0  0  0
   -7.9898    1.6197    0.5780 H   0  0  0  0  0  0  0  0  0  0  0  0
   -9.4430    3.5296    2.2756 H   0  0  0  0  0  0  0  0  0  0  0  0
  -10.9010    3.8040    0.3141 H   0  0  0  0  0  0  0  0  0  0  0  0
   -9.4890    4.1071   -0.7568 H   0  0  0  0  0  0  0  0  0  0  0  0
   -9.9049    5.2819    0.5477 H   0  0  0  0  0  0  0  0  0  0  0  0
   -6.4267    5.5480    0.3670 H   0  0  0  0  0  0  0  0  0  0  0  0
   -7.1049    2.8850   -0.9430 H   0  0  0  0  0  0  0  0  0  0  0  0
   -5.8817    6.4067   -1.8213 H   0  0  0  0  0  0  0  0  0  0  0  0
   -6.8544    6.4194   -3.3310 H   0  0  0  0  0  0  0  0  0  0  0  0
   -4.4939    4.4844   -1.2527 H   0  0  0  0  0  0  0  0  0  0  0  0
   -4.7376    3.3104    0.0807 H   0  0  0  0  0  0  0  0  0  0  0  0
   -2.9028    3.6047   -2.8981 H   0  0  0  0  0  0  0  0  0  0  0  0
   -2.4590    1.8758   -3.0266 H   0  0  0  0  0  0  0  0  0  0  0  0
  1  2  1  0
  2  3  2  0
  2  4  1  0
  4  5  1  0
  5  6  1  0
  6  7  1  0
  7  8  1  0
  8  9  1  0
  9 10  1  0
 10 11  2  0
 11 12  1  0
 12 13  2  0
 13 14  1  0
 13 15  1  0
 15 16  1  0
 16 17  1  0
 17 18  1  0
 18 19  1  0
 19 20  1  0
 20 21  2  0
 20 22  1  0
 22 23  1  0
 22 24  1  0
 24 25  1  0
 25 26  2  0
 25 27  1  0
 27 28  1  0
 27 29  1  0
 29 30  1  0
 30 31  2  0
 30 32  1  0
 32 33  1  0
 32 34  1  0
 34 35  1  0
 35 36  2  0
 35 37  1  0
 37 38  1  0
 37 39  1  0
 39 40  1  0
 40 41  2  0
 40 42  1  0
 42 43  1  0
 42 44  1  0
 44 45  1  0
 45 46  2  0
 45 47  1  0
 47 48  1  0
 47 49  1  0
 49 50  1  0
 50 51  2  0
 50 52  1  0
 52 53  1  0
 52 54  1  0
 54 55  1  0
 55 56  2  0
 18 57  1  0
 57 58  2  0
 57 59  1  0
 59 60  1  0
 60 61  1  0
 60 62  1  0
 62 63  2  0
 62 64  1  0
 64 65  1  0
 65 66  1  0
 65 67  1  0
 67 68  2  0
 67 69  1  0
 69 70  1  0
 70 71  1  0
 70 72  1  0
 72 73  2  0
 72 74  1  0
 74 75  1  0
 75 76  1  0
 75 77  1  0
 77 78  2  0
 77 79  1  0
 79 80  1  0
 80 81  1  0
 80 82  1  0
 82 83  2  0
 82 84  1  0
 84 85  1  0
 85 86  1  0
 86 87  1  0
 86 88  2  0
 85 89  1  0
 89 90  1  0
 90 91  1  0
 55  5  1  0
 14  9  2  0
 91 11  1  0
  1 92  1  0
  1 93  1  0
  1 94  1  0
  4 95  1  0
  5 96  1  1
  6 97  1  0
  6 98  1  0
  8 99  1  0
  8100  1  0
 10101  1  0
 12102  1  0
 14103  1  0
 15104  1  0
 15105  1  0
 17106  1  0
 17107  1  0
 18108  1  6
 19109  1  0
 22110  1  6
 23111  1  0
 23112  1  0
 23113  1  0
 24114  1  0
 27115  1  1
 28116  1  0
 28117  1  0
 28118  1  0
 29119  1  0
 32120  1  6
 33121  1  0
 33122  1  0
 33123  1  0
 34124  1  0
 37125  1  1
 38126  1  0
 38127  1  0
 38128  1  0
 39129  1  0
 42130  1  1
 43131  1  0
 43132  1  0
 43133  1  0
 44134  1  0
 47135  1  1
 48136  1  0
 48137  1  0
 48138  1  0
 49139  1  0
 52140  1  1
 53141  1  0
 53142  1  0
 53143  1  0
 54144  1  0
 59145  1  0
 60146  1  6
 61147  1  0
 61148  1  0
 61149  1  0
 64150  1  0
 65151  1  1
 66152  1  0
 66153  1  0
 66154  1  0
 69155  1  0
 70156  1  1
 71157  1  0
 71158  1  0
 71159  1  0
 74160  1  0
 75161  1  1
 76162  1  0
 76163  1  0
 76164  1  0
 79165  1  0
 80166  1  1
 81167  1  0
 81168  1  0
 81169  1  0
 84170  1  0
 85171  1  1
 87172  1  0
 87173  1  0
 89174  1  0
 89175  1  0
 91176  1  0
 91177  1  0
M  END
