
     RDKit          3D

167169  0  0  0  0  0  0  0  0999 V2000
   -3.1271   -8.8163    2.8068 C   0  0  0  0  0  0  0  0  0  0  0  0
   -2.9049   -8.1186    1.5037 C   0  0  0  0  0  0  0  0  0  0  0  0
   -2.3823   -8.7600    0.5498 O   0  0  0  0  0  0  0  0  0  0  0  0
   -3.3201   -6.7501    1.3267 N   0  0  0  0  0  0  0  0  0  0  0  0
   -3.2374   -6.0279    0.0508 C   0  0  1  0  0  0  0  0  0  0  0  0
   -1.7746   -5.6875   -0.2778 C   0  0  0  0  0  0  0  0  0  0  0  0
   -1.0722   -4.5609    0.9971 S   0  0  0  0  0  0  0  0  0  0  0  0
   -0.5271   -3.1924   -0.0904 C   0  0  0  0  0  0  0  0  0  0  0  0
    0.9303   -2.9023    0.1312 C   0  0  0  0  0  0  0  0  0  0  0  0
    1.3430   -1.6415    0.5979 C   0  0  0  0  0  0  0  0  0  0  0  0
    2.7065   -1.3288    0.6983 C   0  0  0  0  0  0  0  0  0  0  0  0
    3.6531   -2.3219    0.4140 C   0  0  0  0  0  0  0  0  0  0  0  0
    3.2595   -3.6037    0.0050 C   0  0  0  0  0  0  0  0  0  0  0  0
    1.8953   -3.8798   -0.1636 C   0  0  0  0  0  0  0  0  0  0  0  0
    4.3006   -4.6633   -0.2263 C   0  0  0  0  0  0  0  0  0  0  0  0
    5.3100   -4.2243   -1.6836 S   0  0  0  0  0  0  0  0  0  0  0  0
    6.9262   -4.8230   -1.0508 C   0  0  0  0  0  0  0  0  0  0  0  0
    7.6945   -3.7049   -0.3120 C   0  0  1  0  0  0  0  0  0  0  0  0
    7.3505   -3.6361    1.1561 C   0  0  0  0  0  0  0  0  0  0  0  0
    7.5981   -4.7393    2.0289 N   0  0  0  0  0  0  0  0  0  0  0  0
    6.8706   -2.5735    1.6323 O   0  0  0  0  0  0  0  0  0  0  0  0
    9.1438   -3.8991   -0.4444 N   0  0  0  0  0  0  0  0  0  0  0  0
   10.0967   -2.8246   -0.5639 C   0  0  0  0  0  0  0  0  0  0  0  0
   11.2088   -2.9356    0.0160 O   0  0  0  0  0  0  0  0  0  0  0  0
    9.8438   -1.5906   -1.4061 C   0  0  1  0  0  0  0  0  0  0  0  0
    9.4364   -1.9960   -2.8312 C   0  0  0  0  0  0  0  0  0  0  0  0
    8.8419   -0.7236   -0.7853 N   0  0  0  0  0  0  0  0  0  0  0  0
    8.4371    0.5122   -1.3752 C   0  0  0  0  0  0  0  0  0  0  0  0
    7.2886    0.6099   -1.8827 O   0  0  0  0  0  0  0  0  0  0  0  0
    9.3513    1.7070   -1.3470 C   0  0  1  0  0  0  0  0  0  0  0  0
    9.7872    2.0515   -2.7797 C   0  0  0  0  0  0  0  0  0  0  0  0
    8.6630    2.8069   -0.6522 N   0  0  0  0  0  0  0  0  0  0  0  0
    8.5792    4.1792   -1.0872 C   0  0  0  0  0  0  0  0  0  0  0  0
    9.5371    4.7130   -1.6995 O   0  0  0  0  0  0  0  0  0  0  0  0
    7.2928    4.9518   -0.9297 C   0  0  1  0  0  0  0  0  0  0  0  0
    6.3129    4.4799   -2.0125 C   0  0  0  0  0  0  0  0  0  0  0  0
    6.7264    4.7678    0.4139 N   0  0  0  0  0  0  0  0  0  0  0  0
    5.3690    5.1160    0.7310 C   0  0  0  0  0  0  0  0  0  0  0  0
    4.8928    6.2070    0.3061 O   0  0  0  0  0  0  0  0  0  0  0  0
    4.4535    4.1362    1.4290 C   0  0  1  0  0  0  0  0  0  0  0  0
    5.2178    3.0271    2.1617 C   0  0  0  0  0  0  0  0  0  0  0  0
    3.5869    4.8349    2.3803 N   0  0  0  0  0  0  0  0  0  0  0  0
    2.3548    4.2755    2.8641 C   0  0  0  0  0  0  0  0  0  0  0  0
    2.0953    4.3600    4.0962 O   0  0  0  0  0  0  0  0  0  0  0  0
    1.3535    3.6058    1.9437 C   0  0  1  0  0  0  0  0  0  0  0  0
    1.4786    2.0611    1.9956 C   0  0  0  0  0  0  0  0  0  0  0  0
    2.2263    1.4045    0.4529 S   0  0  0  0  0  0  0  0  0  0  0  0
    3.1813    0.0223    1.1863 C   0  0  0  0  0  0  0  0  0  0  0  0
    0.0025    4.0054    2.3512 N   0  0  0  0  0  0  0  0  0  0  0  0
   -0.9807    4.4246    1.4019 C   0  0  0  0  0  0  0  0  0  0  0  0
   -1.9152    3.6317    1.1126 O   0  0  0  0  0  0  0  0  0  0  0  0
   -1.0270    5.8344    0.8616 C   0  0  1  0  0  0  0  0  0  0  0  0
    0.2927    6.5978    1.0206 C   0  0  0  0  0  0  0  0  0  0  0  0
   -1.3974    5.8011   -0.5572 N   0  0  0  0  0  0  0  0  0  0  0  0
   -2.5759    6.4157   -1.1014 C   0  0  0  0  0  0  0  0  0  0  0  0
   -3.0838    5.9259   -2.1500 O   0  0  0  0  0  0  0  0  0  0  0  0
   -3.2043    7.6354   -0.4610 C   0  0  1  0  0  0  0  0  0  0  0  0
   -4.0042    8.4732   -1.4723 C   0  0  0  0  0  0  0  0  0  0  0  0
   -4.0492    7.2811    0.6856 N   0  0  0  0  0  0  0  0  0  0  0  0
   -5.2517    6.5096    0.5733 C   0  0  0  0  0  0  0  0  0  0  0  0
   -6.3641    7.0715    0.7603 O   0  0  0  0  0  0  0  0  0  0  0  0
   -5.1966    5.0221    0.3631 C   0  0  1  0  0  0  0  0  0  0  0  0
   -5.5908    4.2830    1.6469 C   0  0  0  0  0  0  0  0  0  0  0  0
   -6.0264    4.6467   -0.7868 N   0  0  0  0  0  0  0  0  0  0  0  0
   -7.3289    4.0558   -0.6798 C   0  0  0  0  0  0  0  0  0  0  0  0
   -8.2687    4.7229   -0.1710 O   0  0  0  0  0  0  0  0  0  0  0  0
   -7.5901    2.6361   -1.1237 C   0  0  1  0  0  0  0  0  0  0  0  0
   -6.4005    2.0594   -1.9132 C   0  0  0  0  0  0  0  0  0  0  0  0
   -7.9060    1.8022    0.0487 N   0  0  0  0  0  0  0  0  0  0  0  0
   -7.8216    0.3699    0.0493 C   0  0  0  0  0  0  0  0  0  0  0  0
   -6.8903   -0.1765    0.6956 O   0  0  0  0  0  0  0  0  0  0  0  0
   -8.8889   -0.5079   -0.5646 C   0  0  1  0  0  0  0  0  0  0  0  0
   -9.7308    0.2001   -1.6303 C   0  0  0  0  0  0  0  0  0  0  0  0
   -8.2712   -1.7077   -1.1344 N   0  0  0  0  0  0  0  0  0  0  0  0
   -8.9611   -2.9574   -1.1445 C   0  0  0  0  0  0  0  0  0  0  0  0
   -9.9218   -3.1285   -1.9438 O   0  0  0  0  0  0  0  0  0  0  0  0
   -8.5631   -4.0470   -0.1853 C   0  0  1  0  0  0  0  0  0  0  0  0
   -9.4731   -4.0150    1.0417 C   0  0  0  0  0  0  0  0  0  0  0  0
   -8.6591   -5.3518   -0.8482 N   0  0  0  0  0  0  0  0  0  0  0  0
   -7.5257   -6.1441   -1.2342 C   0  0  0  0  0  0  0  0  0  0  0  0
   -7.5567   -6.7213   -2.3524 O   0  0  0  0  0  0  0  0  0  0  0  0
   -6.3464   -6.3684   -0.3046 C   0  0  1  0  0  0  0  0  0  0  0  0
   -6.8088   -7.0903    0.9635 C   0  0  0  0  0  0  0  0  0  0  0  0
   -5.3139   -7.1738   -0.9726 N   0  0  0  0  0  0  0  0  0  0  0  0
   -3.9233   -6.8222   -1.0504 C   0  0  0  0  0  0  0  0  0  0  0  0
   -3.2492   -7.2621   -2.0213 O   0  0  0  0  0  0  0  0  0  0  0  0
   -3.7983   -9.6893    2.6588 H   0  0  0  0  0  0  0  0  0  0  0  0
   -3.5879   -8.1307    3.5478 H   0  0  0  0  0  0  0  0  0  0  0  0
   -2.1521   -9.1698    3.2029 H   0  0  0  0  0  0  0  0  0  0  0  0
   -3.7424   -6.2465    2.1419 H   0  0  0  0  0  0  0  0  0  0  0  0
   -3.7627   -5.0560    0.1507 H   0  0  0  0  0  0  0  0  0  0  0  0
   -1.7390   -5.2373   -1.2910 H   0  0  0  0  0  0  0  0  0  0  0  0
   -1.1538   -6.6091   -0.3151 H   0  0  0  0  0  0  0  0  0  0  0  0
   -1.1535   -2.3079    0.1557 H   0  0  0  0  0  0  0  0  0  0  0  0
   -0.6786   -3.3989   -1.1670 H   0  0  0  0  0  0  0  0  0  0  0  0
    0.6021   -0.8977    0.8594 H   0  0  0  0  0  0  0  0  0  0  0  0
    4.7060   -2.0964    0.5077 H   0  0  0  0  0  0  0  0  0  0  0  0
    1.5799   -4.8529   -0.5197 H   0  0  0  0  0  0  0  0  0  0  0  0
    3.8311   -5.6547   -0.4044 H   0  0  0  0  0  0  0  0  0  0  0  0
    4.9164   -4.7542    0.6922 H   0  0  0  0  0  0  0  0  0  0  0  0
    7.5091   -5.1255   -1.9466 H   0  0  0  0  0  0  0  0  0  0  0  0
    6.8024   -5.7322   -0.4291 H   0  0  0  0  0  0  0  0  0  0  0  0
    7.3986   -2.7488   -0.7840 H   0  0  0  0  0  0  0  0  0  0  0  0
    7.4740   -4.6243    3.0560 H   0  0  0  0  0  0  0  0  0  0  0  0
    7.9825   -5.6379    1.6686 H   0  0  0  0  0  0  0  0  0  0  0  0
    9.5238   -4.8328   -0.1695 H   0  0  0  0  0  0  0  0  0  0  0  0
   10.7924   -1.0158   -1.4872 H   0  0  0  0  0  0  0  0  0  0  0  0
    9.2646   -1.0987   -3.4594 H   0  0  0  0  0  0  0  0  0  0  0  0
   10.2555   -2.5787   -3.2988 H   0  0  0  0  0  0  0  0  0  0  0  0
    8.5118   -2.6052   -2.8377 H   0  0  0  0  0  0  0  0  0  0  0  0
    8.4630   -0.9489    0.1626 H   0  0  0  0  0  0  0  0  0  0  0  0
   10.2609    1.4475   -0.7663 H   0  0  0  0  0  0  0  0  0  0  0  0
   10.1651    1.1426   -3.2957 H   0  0  0  0  0  0  0  0  0  0  0  0
   10.6278    2.7743   -2.7671 H   0  0  0  0  0  0  0  0  0  0  0  0
    8.9404    2.4669   -3.3660 H   0  0  0  0  0  0  0  0  0  0  0  0
    8.1325    2.5422    0.2075 H   0  0  0  0  0  0  0  0  0  0  0  0
    7.4895    6.0378   -1.0809 H   0  0  0  0  0  0  0  0  0  0  0  0
    5.9944    3.4338   -1.8213 H   0  0  0  0  0  0  0  0  0  0  0  0
    5.4146    5.1316   -2.0412 H   0  0  0  0  0  0  0  0  0  0  0  0
    6.7943    4.5337   -3.0136 H   0  0  0  0  0  0  0  0  0  0  0  0
    7.3173    4.3712    1.1745 H   0  0  0  0  0  0  0  0  0  0  0  0
    3.8401    3.6729    0.6333 H   0  0  0  0  0  0  0  0  0  0  0  0
    5.8869    3.4610    2.9321 H   0  0  0  0  0  0  0  0  0  0  0  0
    5.8137    2.4258    1.4441 H   0  0  0  0  0  0  0  0  0  0  0  0
    4.5067    2.3409    2.6668 H   0  0  0  0  0  0  0  0  0  0  0  0
    4.0333    5.5645    2.9820 H   0  0  0  0  0  0  0  0  0  0  0  0
    1.5299    3.9577    0.9049 H   0  0  0  0  0  0  0  0  0  0  0  0
    2.0403    1.7613    2.9025 H   0  0  0  0  0  0  0  0  0  0  0  0
    0.4731    1.6005    2.0763 H   0  0  0  0  0  0  0  0  0  0  0  0
    3.1964    0.0265    2.2997 H   0  0  0  0  0  0  0  0  0  0  0  0
    4.2343    0.1880    0.8580 H   0  0  0  0  0  0  0  0  0  0  0  0
   -0.3449    3.6948    3.2877 H   0  0  0  0  0  0  0  0  0  0  0  0
   -1.7893    6.3741    1.4553 H   0  0  0  0  0  0  0  0  0  0  0  0
    0.6102    6.6161    2.0844 H   0  0  0  0  0  0  0  0  0  0  0  0
    1.0906    6.1494    0.3981 H   0  0  0  0  0  0  0  0  0  0  0  0
    0.1514    7.6497    0.6924 H   0  0  0  0  0  0  0  0  0  0  0  0
   -0.8254    5.2026   -1.1957 H   0  0  0  0  0  0  0  0  0  0  0  0
   -2.3757    8.2823   -0.0987 H   0  0  0  0  0  0  0  0  0  0  0  0
   -3.3465    8.7877   -2.3094 H   0  0  0  0  0  0  0  0  0  0  0  0
   -4.3979    9.3826   -0.9723 H   0  0  0  0  0  0  0  0  0  0  0  0
   -4.8582    7.8942   -1.8788 H   0  0  0  0  0  0  0  0  0  0  0  0
   -3.9509    7.8744    1.5408 H   0  0  0  0  0  0  0  0  0  0  0  0
   -4.1551    4.7162    0.1407 H   0  0  0  0  0  0  0  0  0  0  0  0
   -6.6091    4.5744    1.9864 H   0  0  0  0  0  0  0  0  0  0  0  0
   -5.5662    3.1841    1.4764 H   0  0  0  0  0  0  0  0  0  0  0  0
   -4.8685    4.5225    2.4575 H   0  0  0  0  0  0  0  0  0  0  0  0
   -5.6616    4.8547   -1.7444 H   0  0  0  0  0  0  0  0  0  0  0  0
   -8.4664    2.6609   -1.7988 H   0  0  0  0  0  0  0  0  0  0  0  0
   -6.1667    2.7059   -2.7862 H   0  0  0  0  0  0  0  0  0  0  0  0
   -6.6467    1.0494   -2.3070 H   0  0  0  0  0  0  0  0  0  0  0  0
   -5.5035    1.9782   -1.2622 H   0  0  0  0  0  0  0  0  0  0  0  0
   -7.9374    2.2513    0.9901 H   0  0  0  0  0  0  0  0  0  0  0  0
   -9.5746   -0.8108    0.2582 H   0  0  0  0  0  0  0  0  0  0  0  0
   -9.1058    0.4800   -2.5025 H   0  0  0  0  0  0  0  0  0  0  0  0
  -10.5340   -0.4794   -1.9855 H   0  0  0  0  0  0  0  0  0  0  0  0
  -10.2211    1.0996   -1.2038 H   0  0  0  0  0  0  0  0  0  0  0  0
   -7.4495   -1.5973   -1.7711 H   0  0  0  0  0  0  0  0  0  0  0  0
   -7.5233   -3.8511    0.1503 H   0  0  0  0  0  0  0  0  0  0  0  0
  -10.5334   -4.1687    0.7484 H   0  0  0  0  0  0  0  0  0  0  0  0
   -9.1849   -4.8144    1.7525 H   0  0  0  0  0  0  0  0  0  0  0  0
   -9.3790   -3.0385    1.5639 H   0  0  0  0  0  0  0  0  0  0  0  0
   -9.5923   -5.6358   -1.2310 H   0  0  0  0  0  0  0  0  0  0  0  0
   -5.9339   -5.3825   -0.0209 H   0  0  0  0  0  0  0  0  0  0  0  0
   -5.9425   -7.2926    1.6235 H   0  0  0  0  0  0  0  0  0  0  0  0
   -7.5271   -6.4613    1.5266 H   0  0  0  0  0  0  0  0  0  0  0  0
   -7.2922   -8.0562    0.7061 H   0  0  0  0  0  0  0  0  0  0  0  0
   -5.6036   -8.0626   -1.4428 H   0  0  0  0  0  0  0  0  0  0  0  0
  1  2  1  0
  2  3  2  0
  2  4  1  0
  4  5  1  0
  5  6  1  0
  6  7  1  0
  7  8  1  0
  8  9  1  0
  9 10  1  0
 10 11  2  0
 11 12  1  0
 12 13  2  0
 13 14  1  0
 13 15  1  0
 15 16  1  0
 16 17  1  0
 17 18  1  0
 18 19  1  0
 19 20  1  0
 19 21  2  0
 18 22  1  0
 22 23  1  0
 23 24  2  0
 23 25  1  0
 25 26  1  0
 25 27  1  0
 27 28  1  0
 28 29  2  0
 28 30  1  0
 30 31  1  0
 30 32  1  0
 32 33  1  0
 33 34  2  0
 33 35  1  0
 35 36  1  0
 35 37  1  0
 37 38  1  0
 38 39  2  0
 38 40  1  0
 40 41  1  0
 40 42  1  0
 42 43  1  0
 43 44  2  0
 43 45  1  0
 45 46  1  0
 46 47  1  0
 47 48  1  0
 45 49  1  0
 49 50  1  0
 50 51  2  0
 50 52  1  0
 52 53  1  0
 52 54  1  0
 54 55  1  0
 55 56  2  0
 55 57  1  0
 57 58  1  0
 57 59  1  0
 59 60  1  0
 60 61  2  0
 60 62  1  0
 62 63  1  0
 62 64  1  0
 64 65  1  0
 65 66  2  0
 65 67  1  0
 67 68  1  0
 67 69  1  0
 69 70  1  0
 70 71  2  0
 70 72  1  0
 72 73  1  0
 72 74  1  0
 74 75  1  0
 75 76  2  0
 75 77  1  0
 77 78  1  0
 77 79  1  0
 79 80  1  0
 80 81  2  0
 80 82  1  0
 82 83  1  0
 82 84  1  0
 84 85  1  0
 85 86  2  0
 85  5  1  0
 14  9  2  0
 48 11  1  0
  1 87  1  0
  1 88  1  0
  1 89  1  0
  4 90  1  0
  5 91  1  1
  6 92  1  0
  6 93  1  0
  8 94  1  0
  8 95  1  0
 10 96  1  0
 12 97  1  0
 14 98  1  0
 15 99  1  0
 15100  1  0
 17101  1  0
 17102  1  0
 18103  1  6
 20104  1  0
 20105  1  0
 22106  1  0
 25107  1  6
 26108  1  0
 26109  1  0
 26110  1  0
 27111  1  0
 30112  1  1
 31113  1  0
 31114  1  0
 31115  1  0
 32116  1  0
 35117  1  6
 36118  1  0
 36119  1  0
 36120  1  0
 37121  1  0
 40122  1  6
 41123  1  0
 41124  1  0
 41125  1  0
 42126  1  0
 45127  1  6
 46128  1  0
 46129  1  0
 48130  1  0
 48131  1  0
 49132  1  0
 52133  1  1
 53134  1  0
 53135  1  0
 53136  1  0
 54137  1  0
 57138  1  1
 58139  1  0
 58140  1  0
 58141  1  0
 59142  1  0
 62143  1  6
 63144  1  0
 63145  1  0
 63146  1  0
 64147  1  0
 67148  1  6
 68149  1  0
 68150  1  0
 68151  1  0
 69152  1  0
 72153  1  1
 73154  1  0
 73155  1  0
 73156  1  0
 74157  1  0
 77158  1  1
 78159  1  0
 78160  1  0
 78161  1  0
 79162  1  0
 82163  1  1
 83164  1  0
 83165  1  0
 83166  1  0
 84167  1  0
M  END
