
     RDKit          3D

177179  0  0  0  0  0  0  0  0999 V2000
    3.7285    8.2067   -1.0300 C   0  0  0  0  0  0  0  0  0  0  0  0
    3.4074    6.8029   -1.4544 C   0  0  0  0  0  0  0  0  0  0  0  0
    2.8712    6.6448   -2.5838 O   0  0  0  0  0  0  0  0  0  0  0  0
    3.7115    5.6381   -0.6624 N   0  0  0  0  0  0  0  0  0  0  0  0
    4.4266    5.6040    0.6256 C   0  0  2  0  0  0  0  0  0  0  0  0
    3.5831    6.2699    1.7428 C   0  0  0  0  0  0  0  0  0  0  0  0
    2.4885    5.0549    2.5661 S   0  0  0  0  0  0  0  0  0  0  0  0
    1.0363    5.2971    1.4824 C   0  0  0  0  0  0  0  0  0  0  0  0
    0.0425    4.1913    1.7190 C   0  0  0  0  0  0  0  0  0  0  0  0
   -1.2409    4.4618    2.2205 C   0  0  0  0  0  0  0  0  0  0  0  0
   -2.1470    3.4144    2.4745 C   0  0  0  0  0  0  0  0  0  0  0  0
   -1.7444    2.0893    2.2393 C   0  0  0  0  0  0  0  0  0  0  0  0
   -0.4721    1.8081    1.7160 C   0  0  0  0  0  0  0  0  0  0  0  0
    0.4103    2.8635    1.4461 C   0  0  0  0  0  0  0  0  0  0  0  0
   -0.0617    0.3890    1.4681 C   0  0  0  0  0  0  0  0  0  0  0  0
   -0.9741   -0.2635    0.0226 S   0  0  0  0  0  0  0  0  0  0  0  0
    0.0767   -1.7480   -0.2348 C   0  0  0  0  0  0  0  0  0  0  0  0
   -0.5354   -3.0259    0.3545 C   0  0  1  0  0  0  0  0  0  0  0  0
   -0.7305   -2.8766    1.8001 N   0  0  0  0  0  0  0  0  0  0  0  0
   -0.1288   -3.7084    2.7995 C   0  0  0  0  0  0  0  0  0  0  0  0
   -0.7100   -3.8226    3.9160 O   0  0  0  0  0  0  0  0  0  0  0  0
    1.1633   -4.4578    2.5465 C   0  0  1  0  0  0  0  0  0  0  0  0
    1.9123   -4.7138    3.8663 C   0  0  0  0  0  0  0  0  0  0  0  0
    0.8763   -5.7283    1.8769 N   0  0  0  0  0  0  0  0  0  0  0  0
    1.5833   -6.1526    0.7056 C   0  0  0  0  0  0  0  0  0  0  0  0
    0.9299   -6.4860   -0.3227 O   0  0  0  0  0  0  0  0  0  0  0  0
    3.0855   -6.2960    0.7095 C   0  0  1  0  0  0  0  0  0  0  0  0
    3.4813   -7.7671    0.5197 C   0  0  0  0  0  0  0  0  0  0  0  0
    3.6851   -5.4692   -0.3386 N   0  0  0  0  0  0  0  0  0  0  0  0
    4.4945   -4.3347    0.0038 C   0  0  0  0  0  0  0  0  0  0  0  0
    3.9749   -3.3714    0.6221 O   0  0  0  0  0  0  0  0  0  0  0  0
    5.9687   -4.2933   -0.3242 C   0  0  1  0  0  0  0  0  0  0  0  0
    6.6498   -5.6068    0.0678 C   0  0  0  0  0  0  0  0  0  0  0  0
    6.1792   -4.0240   -1.7529 N   0  0  0  0  0  0  0  0  0  0  0  0
    7.4118   -3.5535   -2.3346 C   0  0  0  0  0  0  0  0  0  0  0  0
    7.4890   -3.4733   -3.5913 O   0  0  0  0  0  0  0  0  0  0  0  0
    8.6175   -3.1424   -1.5139 C   0  0  1  0  0  0  0  0  0  0  0  0
    9.8331   -4.0012   -1.8742 C   0  0  0  0  0  0  0  0  0  0  0  0
    8.9189   -1.7335   -1.7607 N   0  0  0  0  0  0  0  0  0  0  0  0
    9.2890   -0.8647   -0.6916 C   0  0  0  0  0  0  0  0  0  0  0  0
   10.4743   -0.8947   -0.2574 O   0  0  0  0  0  0  0  0  0  0  0  0
    8.2929    0.1230   -0.1365 C   0  0  1  0  0  0  0  0  0  0  0  0
    7.0569   -0.6057    0.3949 C   0  0  0  0  0  0  0  0  0  0  0  0
    8.8924    0.9088    0.9494 N   0  0  0  0  0  0  0  0  0  0  0  0
    8.7361    2.3323    1.1396 C   0  0  0  0  0  0  0  0  0  0  0  0
    8.7711    2.7919    2.3160 O   0  0  0  0  0  0  0  0  0  0  0  0
    8.5719    3.3198   -0.0011 C   0  0  1  0  0  0  0  0  0  0  0  0
    9.6600    3.1339   -1.0734 C   0  0  0  0  0  0  0  0  0  0  0  0
    7.2194    3.2511   -0.5785 N   0  0  0  0  0  0  0  0  0  0  0  0
    6.6724    4.2168   -1.4951 C   0  0  0  0  0  0  0  0  0  0  0  0
    5.6712    3.8834   -2.1822 O   0  0  0  0  0  0  0  0  0  0  0  0
    7.1837    5.6427   -1.5762 C   0  0  1  0  0  0  0  0  0  0  0  0
    7.1948    6.1283   -3.0326 C   0  0  0  0  0  0  0  0  0  0  0  0
    6.3782    6.5510   -0.7532 N   0  0  0  0  0  0  0  0  0  0  0  0
    5.8297    6.1646    0.5133 C   0  0  0  0  0  0  0  0  0  0  0  0
    6.5385    6.2883    1.5450 O   0  0  0  0  0  0  0  0  0  0  0  0
   -1.8332   -3.3987   -0.3196 C   0  0  0  0  0  0  0  0  0  0  0  0
   -1.8657   -3.5360   -1.5721 O   0  0  0  0  0  0  0  0  0  0  0  0
   -2.9990   -3.7081    0.4495 N   0  0  0  0  0  0  0  0  0  0  0  0
   -4.0257   -2.7036    0.7200 C   0  0  2  0  0  0  0  0  0  0  0  0
   -4.5385   -2.8818    2.1562 C   0  0  0  0  0  0  0  0  0  0  0  0
   -5.1254   -2.8180   -0.3057 C   0  0  0  0  0  0  0  0  0  0  0  0
   -4.8864   -2.4712   -1.4938 O   0  0  0  0  0  0  0  0  0  0  0  0
   -6.4195   -3.3331    0.0315 N   0  0  0  0  0  0  0  0  0  0  0  0
   -6.9558   -4.5665   -0.5494 C   0  0  2  0  0  0  0  0  0  0  0  0
   -6.0331   -5.7498   -0.2479 C   0  0  0  0  0  0  0  0  0  0  0  0
   -7.2106   -4.3932   -2.0341 C   0  0  0  0  0  0  0  0  0  0  0  0
   -6.3560   -4.8163   -2.8628 O   0  0  0  0  0  0  0  0  0  0  0  0
   -8.3840   -3.7347   -2.5382 N   0  0  0  0  0  0  0  0  0  0  0  0
   -9.4282   -3.1307   -1.6982 C   0  0  2  0  0  0  0  0  0  0  0  0
  -10.4976   -4.1787   -1.3602 C   0  0  0  0  0  0  0  0  0  0  0  0
  -10.0684   -1.9661   -2.4232 C   0  0  0  0  0  0  0  0  0  0  0  0
  -10.5971   -2.1693   -3.5515 O   0  0  0  0  0  0  0  0  0  0  0  0
  -10.0574   -0.6239   -1.9003 N   0  0  0  0  0  0  0  0  0  0  0  0
  -10.0746   -0.2762   -0.4732 C   0  0  2  0  0  0  0  0  0  0  0  0
  -11.4195    0.3543   -0.1166 C   0  0  0  0  0  0  0  0  0  0  0  0
   -8.9371    0.6549   -0.1719 C   0  0  0  0  0  0  0  0  0  0  0  0
   -7.9649    0.2551    0.5260 O   0  0  0  0  0  0  0  0  0  0  0  0
   -8.8965    1.9639   -0.7477 N   0  0  0  0  0  0  0  0  0  0  0  0
   -9.3159    3.1283    0.0224 C   0  0  2  0  0  0  0  0  0  0  0  0
   -9.8882    4.1994   -0.9125 C   0  0  0  0  0  0  0  0  0  0  0  0
   -8.1793    3.6773    0.8342 C   0  0  0  0  0  0  0  0  0  0  0  0
   -8.2262    3.6319    2.0917 O   0  0  0  0  0  0  0  0  0  0  0  0
   -7.0586    4.2930    0.1978 N   0  0  0  0  0  0  0  0  0  0  0  0
   -5.9009    3.5258   -0.2797 C   0  0  1  0  0  0  0  0  0  0  0  0
   -5.5700    3.9251   -1.6939 C   0  0  0  0  0  0  0  0  0  0  0  0
   -5.0875    2.9518   -2.6237 N   0  0  0  0  0  0  0  0  0  0  0  0
   -5.6903    5.1273   -2.0616 O   0  0  0  0  0  0  0  0  0  0  0  0
   -4.6855    3.7809    0.6261 C   0  0  0  0  0  0  0  0  0  0  0  0
   -4.8654    2.8702    2.2036 S   0  0  0  0  0  0  0  0  0  0  0  0
   -3.4974    3.7139    3.0783 C   0  0  0  0  0  0  0  0  0  0  0  0
    4.3613    8.6890   -1.8144 H   0  0  0  0  0  0  0  0  0  0  0  0
    4.2783    8.2695   -0.0740 H   0  0  0  0  0  0  0  0  0  0  0  0
    2.7861    8.7814   -0.9264 H   0  0  0  0  0  0  0  0  0  0  0  0
    3.3995    4.7126   -1.0439 H   0  0  0  0  0  0  0  0  0  0  0  0
    4.5666    4.5345    0.8974 H   0  0  0  0  0  0  0  0  0  0  0  0
    4.2463    6.6708    2.5345 H   0  0  0  0  0  0  0  0  0  0  0  0
    2.9784    7.1129    1.3660 H   0  0  0  0  0  0  0  0  0  0  0  0
    0.5912    6.2907    1.7126 H   0  0  0  0  0  0  0  0  0  0  0  0
    1.3326    5.2856    0.4190 H   0  0  0  0  0  0  0  0  0  0  0  0
   -1.5288    5.4810    2.4419 H   0  0  0  0  0  0  0  0  0  0  0  0
   -2.4147    1.2689    2.4787 H   0  0  0  0  0  0  0  0  0  0  0  0
    1.3990    2.6531    1.0629 H   0  0  0  0  0  0  0  0  0  0  0  0
   -0.2916   -0.2159    2.3680 H   0  0  0  0  0  0  0  0  0  0  0  0
    1.0318    0.3340    1.3019 H   0  0  0  0  0  0  0  0  0  0  0  0
    0.2063   -1.8763   -1.3261 H   0  0  0  0  0  0  0  0  0  0  0  0
    1.1009   -1.6047    0.1702 H   0  0  0  0  0  0  0  0  0  0  0  0
    0.1833   -3.8367    0.1378 H   0  0  0  0  0  0  0  0  0  0  0  0
   -1.4812   -2.2270    2.1250 H   0  0  0  0  0  0  0  0  0  0  0  0
    1.8133   -3.8336    1.9074 H   0  0  0  0  0  0  0  0  0  0  0  0
    2.9003   -5.1849    3.6846 H   0  0  0  0  0  0  0  0  0  0  0  0
    2.0937   -3.7467    4.3896 H   0  0  0  0  0  0  0  0  0  0  0  0
    1.3240   -5.3792    4.5256 H   0  0  0  0  0  0  0  0  0  0  0  0
   -0.0130   -6.2292    2.1101 H   0  0  0  0  0  0  0  0  0  0  0  0
    3.4793   -5.9785    1.6959 H   0  0  0  0  0  0  0  0  0  0  0  0
    2.9536   -8.2129   -0.3479 H   0  0  0  0  0  0  0  0  0  0  0  0
    3.2263   -8.3445    1.4297 H   0  0  0  0  0  0  0  0  0  0  0  0
    4.5688   -7.8566    0.3558 H   0  0  0  0  0  0  0  0  0  0  0  0
    3.6302   -5.7745   -1.3441 H   0  0  0  0  0  0  0  0  0  0  0  0
    6.3994   -3.4735    0.2800 H   0  0  0  0  0  0  0  0  0  0  0  0
    6.3162   -6.4289   -0.5992 H   0  0  0  0  0  0  0  0  0  0  0  0
    6.4121   -5.8686    1.1220 H   0  0  0  0  0  0  0  0  0  0  0  0
    7.7508   -5.5161   -0.0163 H   0  0  0  0  0  0  0  0  0  0  0  0
    5.3870   -4.2047   -2.4108 H   0  0  0  0  0  0  0  0  0  0  0  0
    8.4366   -3.2918   -0.4319 H   0  0  0  0  0  0  0  0  0  0  0  0
    9.6088   -5.0815   -1.7020 H   0  0  0  0  0  0  0  0  0  0  0  0
   10.1172   -3.8595   -2.9409 H   0  0  0  0  0  0  0  0  0  0  0  0
   10.6893   -3.7166   -1.2328 H   0  0  0  0  0  0  0  0  0  0  0  0
    9.0894   -1.4116   -2.7405 H   0  0  0  0  0  0  0  0  0  0  0  0
    7.9617    0.7715   -0.9721 H   0  0  0  0  0  0  0  0  0  0  0  0
    6.3546    0.1233    0.8472 H   0  0  0  0  0  0  0  0  0  0  0  0
    7.3400   -1.3461    1.1759 H   0  0  0  0  0  0  0  0  0  0  0  0
    6.5249   -1.1257   -0.4315 H   0  0  0  0  0  0  0  0  0  0  0  0
    9.2604    0.3759    1.7689 H   0  0  0  0  0  0  0  0  0  0  0  0
    8.7122    4.3322    0.4433 H   0  0  0  0  0  0  0  0  0  0  0  0
   10.6636    3.2017   -0.5998 H   0  0  0  0  0  0  0  0  0  0  0  0
    9.5809    2.1584   -1.5860 H   0  0  0  0  0  0  0  0  0  0  0  0
    9.5958    3.9313   -1.8371 H   0  0  0  0  0  0  0  0  0  0  0  0
    6.5944    2.4563   -0.3104 H   0  0  0  0  0  0  0  0  0  0  0  0
    8.2335    5.7044   -1.2211 H   0  0  0  0  0  0  0  0  0  0  0  0
    6.1633    6.2245   -3.4229 H   0  0  0  0  0  0  0  0  0  0  0  0
    7.7637    5.4108   -3.6686 H   0  0  0  0  0  0  0  0  0  0  0  0
    7.6875    7.1132   -3.1006 H   0  0  0  0  0  0  0  0  0  0  0  0
    6.6209    7.5679   -0.8366 H   0  0  0  0  0  0  0  0  0  0  0  0
   -3.2410   -4.7220    0.5731 H   0  0  0  0  0  0  0  0  0  0  0  0
   -3.5870   -1.6845    0.6471 H   0  0  0  0  0  0  0  0  0  0  0  0
   -4.9918   -3.8883    2.2944 H   0  0  0  0  0  0  0  0  0  0  0  0
   -5.2945   -2.0997    2.4000 H   0  0  0  0  0  0  0  0  0  0  0  0
   -3.7020   -2.7763    2.8774 H   0  0  0  0  0  0  0  0  0  0  0  0
   -6.9583   -2.8763    0.8075 H   0  0  0  0  0  0  0  0  0  0  0  0
   -7.9187   -4.8001   -0.0550 H   0  0  0  0  0  0  0  0  0  0  0  0
   -5.8830   -5.8389    0.8457 H   0  0  0  0  0  0  0  0  0  0  0  0
   -5.0477   -5.6203   -0.7432 H   0  0  0  0  0  0  0  0  0  0  0  0
   -6.4926   -6.6922   -0.6204 H   0  0  0  0  0  0  0  0  0  0  0  0
   -8.4741   -3.6644   -3.5775 H   0  0  0  0  0  0  0  0  0  0  0  0
   -8.9616   -2.7818   -0.7662 H   0  0  0  0  0  0  0  0  0  0  0  0
  -10.9654   -4.5764   -2.2844 H   0  0  0  0  0  0  0  0  0  0  0  0
  -10.0574   -5.0230   -0.7985 H   0  0  0  0  0  0  0  0  0  0  0  0
  -11.2915   -3.7206   -0.7269 H   0  0  0  0  0  0  0  0  0  0  0  0
  -10.2159    0.1508   -2.5871 H   0  0  0  0  0  0  0  0  0  0  0  0
   -9.9761   -1.1771    0.1627 H   0  0  0  0  0  0  0  0  0  0  0  0
  -11.6124    1.2610   -0.7292 H   0  0  0  0  0  0  0  0  0  0  0  0
  -12.2380   -0.3771   -0.2956 H   0  0  0  0  0  0  0  0  0  0  0  0
  -11.4340    0.6387    0.9546 H   0  0  0  0  0  0  0  0  0  0  0  0
   -8.2784    2.1106   -1.5791 H   0  0  0  0  0  0  0  0  0  0  0  0
  -10.1368    2.8322    0.7102 H   0  0  0  0  0  0  0  0  0  0  0  0
  -10.7349    3.7775   -1.4945 H   0  0  0  0  0  0  0  0  0  0  0  0
   -9.1088    4.5531   -1.6225 H   0  0  0  0  0  0  0  0  0  0  0  0
  -10.2591    5.0647   -0.3175 H   0  0  0  0  0  0  0  0  0  0  0  0
   -6.9707    5.3390    0.2832 H   0  0  0  0  0  0  0  0  0  0  0  0
   -6.1332    2.4359   -0.2668 H   0  0  0  0  0  0  0  0  0  0  0  0
   -4.6991    3.2598   -3.5416 H   0  0  0  0  0  0  0  0  0  0  0  0
   -4.9795    1.9503   -2.3429 H   0  0  0  0  0  0  0  0  0  0  0  0
   -3.7524    3.4191    0.1322 H   0  0  0  0  0  0  0  0  0  0  0  0
   -4.5760    4.8721    0.8180 H   0  0  0  0  0  0  0  0  0  0  0  0
   -3.4978    3.3675    4.1329 H   0  0  0  0  0  0  0  0  0  0  0  0
   -3.7010    4.8032    3.0837 H   0  0  0  0  0  0  0  0  0  0  0  0
  1  2  1  0
  2  3  2  0
  2  4  1  0
  4  5  1  0
  5  6  1  0
  6  7  1  0
  7  8  1  0
  8  9  1  0
  9 10  1  0
 10 11  2  0
 11 12  1  0
 12 13  2  0
 13 14  1  0
 13 15  1  0
 15 16  1  0
 16 17  1  0
 17 18  1  0
 18 19  1  0
 19 20  1  0
 20 21  2  0
 20 22  1  0
 22 23  1  0
 22 24  1  0
 24 25  1  0
 25 26  2  0
 25 27  1  0
 27 28  1  0
 27 29  1  0
 29 30  1  0
 30 31  2  0
 30 32  1  0
 32 33  1  0
 32 34  1  0
 34 35  1  0
 35 36  2  0
 35 37  1  0
 37 38  1  0
 37 39  1  0
 39 40  1  0
 40 41  2  0
 40 42  1  0
 42 43  1  0
 42 44  1  0
 44 45  1  0
 45 46  2  0
 45 47  1  0
 47 48  1  0
 47 49  1  0
 49 50  1  0
 50 51  2  0
 50 52  1  0
 52 53  1  0
 52 54  1  0
 54 55  1  0
 55 56  2  0
 18 57  1  0
 57 58  2  0
 57 59  1  0
 59 60  1  0
 60 61  1  0
 60 62  1  0
 62 63  2  0
 62 64  1  0
 64 65  1  0
 65 66  1  0
 65 67  1  0
 67 68  2  0
 67 69  1  0
 69 70  1  0
 70 71  1  0
 70 72  1  0
 72 73  2  0
 72 74  1  0
 74 75  1  0
 75 76  1  0
 75 77  1  0
 77 78  2  0
 77 79  1  0
 79 80  1  0
 80 81  1  0
 80 82  1  0
 82 83  2  0
 82 84  1  0
 84 85  1  0
 85 86  1  0
 86 87  1  0
 86 88  2  0
 85 89  1  0
 89 90  1  0
 90 91  1  0
 55  5  1  0
 14  9  2  0
 91 11  1  0
  1 92  1  0
  1 93  1  0
  1 94  1  0
  4 95  1  0
  5 96  1  1
  6 97  1  0
  6 98  1  0
  8 99  1  0
  8100  1  0
 10101  1  0
 12102  1  0
 14103  1  0
 15104  1  0
 15105  1  0
 17106  1  0
 17107  1  0
 18108  1  1
 19109  1  0
 22110  1  6
 23111  1  0
 23112  1  0
 23113  1  0
 24114  1  0
 27115  1  1
 28116  1  0
 28117  1  0
 28118  1  0
 29119  1  0
 32120  1  1
 33121  1  0
 33122  1  0
 33123  1  0
 34124  1  0
 37125  1  1
 38126  1  0
 38127  1  0
 38128  1  0
 39129  1  0
 42130  1  6
 43131  1  0
 43132  1  0
 43133  1  0
 44134  1  0
 47135  1  1
 48136  1  0
 48137  1  0
 48138  1  0
 49139  1  0
 52140  1  1
 53141  1  0
 53142  1  0
 53143  1  0
 54144  1  0
 59145  1  0
 60146  1  1
 61147  1  0
 61148  1  0
 61149  1  0
 64150  1  0
 65151  1  1
 66152  1  0
 66153  1  0
 66154  1  0
 69155  1  0
 70156  1  1
 71157  1  0
 71158  1  0
 71159  1  0
 74160  1  0
 75161  1  1
 76162  1  0
 76163  1  0
 76164  1  0
 79165  1  0
 80166  1  1
 81167  1  0
 81168  1  0
 81169  1  0
 84170  1  0
 85171  1  6
 87172  1  0
 87173  1  0
 89174  1  0
 89175  1  0
 91176  1  0
 91177  1  0
M  END
