
     RDKit          3D

107109  0  0  0  0  0  0  0  0999 V2000
    8.6706    2.0697   -1.8002 C   0  0  0  0  0  0  0  0  0  0  0  0
    7.3557    1.5166   -1.3618 C   0  0  0  0  0  0  0  0  0  0  0  0
    7.2862    0.8843   -0.2757 O   0  0  0  0  0  0  0  0  0  0  0  0
    6.1874    1.7245   -2.1748 N   0  0  0  0  0  0  0  0  0  0  0  0
    4.8575    1.1519   -1.9181 C   0  0  2  0  0  0  0  0  0  0  0  0
    4.3046    1.5335   -0.5385 C   0  0  0  0  0  0  0  0  0  0  0  0
    4.3100    3.3390   -0.2485 S   0  0  0  0  0  0  0  0  0  0  0  0
    3.9124    3.2096    1.5367 C   0  0  0  0  0  0  0  0  0  0  0  0
    2.4614    2.8732    1.7336 C   0  0  0  0  0  0  0  0  0  0  0  0
    1.5081    3.8987    1.7370 C   0  0  0  0  0  0  0  0  0  0  0  0
    0.1479    3.6017    1.8815 C   0  0  0  0  0  0  0  0  0  0  0  0
   -0.2545    2.2644    2.0187 C   0  0  0  0  0  0  0  0  0  0  0  0
    0.6829    1.2168    2.0190 C   0  0  0  0  0  0  0  0  0  0  0  0
    2.0512    1.5388    1.9054 C   0  0  0  0  0  0  0  0  0  0  0  0
    0.1750   -0.1955    2.2331 C   0  0  0  0  0  0  0  0  0  0  0  0
    1.4057   -1.5257    1.9316 S   0  0  0  0  0  0  0  0  0  0  0  0
    1.2648   -1.5730    0.1036 C   0  0  0  0  0  0  0  0  0  0  0  0
    1.7397   -2.9237   -0.4759 C   0  0  1  0  0  0  0  0  0  0  0  0
    2.9466   -3.4309    0.1929 N   0  0  0  0  0  0  0  0  0  0  0  0
    4.2652   -3.1006   -0.2553 C   0  0  0  0  0  0  0  0  0  0  0  0
    5.0023   -4.0047   -0.7338 O   0  0  0  0  0  0  0  0  0  0  0  0
    4.8309   -1.7317   -0.0096 C   0  0  1  0  0  0  0  0  0  0  0  0
    5.7931   -1.7780    1.1730 C   0  0  0  0  0  0  0  0  0  0  0  0
    5.5171   -1.2301   -1.2042 N   0  0  0  0  0  0  0  0  0  0  0  0
    4.8703   -0.3472   -2.1266 C   0  0  0  0  0  0  0  0  0  0  0  0
    4.3421   -0.8315   -3.1627 O   0  0  0  0  0  0  0  0  0  0  0  0
    0.6378   -3.9492   -0.3994 C   0  0  0  0  0  0  0  0  0  0  0  0
    0.2710   -4.5515   -1.4394 O   0  0  0  0  0  0  0  0  0  0  0  0
    0.0350   -4.2768    0.8546 N   0  0  0  0  0  0  0  0  0  0  0  0
   -1.3483   -3.9121    1.1466 C   0  0  2  0  0  0  0  0  0  0  0  0
   -1.5480   -3.7744    2.6576 C   0  0  0  0  0  0  0  0  0  0  0  0
   -2.2895   -4.9551    0.6070 C   0  0  0  0  0  0  0  0  0  0  0  0
   -2.0415   -6.1765    0.7886 O   0  0  0  0  0  0  0  0  0  0  0  0
   -3.5357   -4.5799    0.0138 N   0  0  0  0  0  0  0  0  0  0  0  0
   -3.6608   -4.1354   -1.3786 C   0  0  2  0  0  0  0  0  0  0  0  0
   -3.1526   -5.2349   -2.3288 C   0  0  0  0  0  0  0  0  0  0  0  0
   -2.9716   -2.8007   -1.6016 C   0  0  0  0  0  0  0  0  0  0  0  0
   -1.9854   -2.7369   -2.3886 O   0  0  0  0  0  0  0  0  0  0  0  0
   -3.4253   -1.5818   -0.9850 N   0  0  0  0  0  0  0  0  0  0  0  0
   -4.3501   -1.4854    0.1575 C   0  0  2  0  0  0  0  0  0  0  0  0
   -5.7756   -1.9421   -0.2071 C   0  0  0  0  0  0  0  0  0  0  0  0
   -4.3331   -0.0776    0.7120 C   0  0  0  0  0  0  0  0  0  0  0  0
   -3.5230    0.2007    1.6393 O   0  0  0  0  0  0  0  0  0  0  0  0
   -5.2962    0.9104    0.3142 N   0  0  0  0  0  0  0  0  0  0  0  0
   -5.2470    1.6802   -0.9328 C   0  0  2  0  0  0  0  0  0  0  0  0
   -5.7031    0.8593   -2.1476 C   0  0  0  0  0  0  0  0  0  0  0  0
   -3.9002    2.3172   -1.1309 C   0  0  0  0  0  0  0  0  0  0  0  0
   -3.1854    2.0338   -2.1304 O   0  0  0  0  0  0  0  0  0  0  0  0
   -3.4635    3.3202   -0.2097 N   0  0  0  0  0  0  0  0  0  0  0  0
   -3.0567    4.6464   -0.6829 C   0  0  1  0  0  0  0  0  0  0  0  0
   -3.7375    5.7642    0.0851 C   0  0  0  0  0  0  0  0  0  0  0  0
   -4.4683    5.5351    1.2995 N   0  0  0  0  0  0  0  0  0  0  0  0
   -3.6574    6.9451   -0.3592 O   0  0  0  0  0  0  0  0  0  0  0  0
   -1.5091    4.7521   -0.7159 C   0  0  0  0  0  0  0  0  0  0  0  0
   -0.7456    5.8471    0.5497 S   0  0  0  0  0  0  0  0  0  0  0  0
   -0.8696    4.7115    1.9709 C   0  0  0  0  0  0  0  0  0  0  0  0
    8.5846    3.1710   -1.9278 H   0  0  0  0  0  0  0  0  0  0  0  0
    8.9574    1.6157   -2.7723 H   0  0  0  0  0  0  0  0  0  0  0  0
    9.4599    1.8421   -1.0486 H   0  0  0  0  0  0  0  0  0  0  0  0
    6.2951    2.2981   -3.0428 H   0  0  0  0  0  0  0  0  0  0  0  0
    4.1547    1.5830   -2.6668 H   0  0  0  0  0  0  0  0  0  0  0  0
    4.8911    1.0441    0.2626 H   0  0  0  0  0  0  0  0  0  0  0  0
    3.2561    1.1736   -0.4864 H   0  0  0  0  0  0  0  0  0  0  0  0
    4.1300    4.1856    2.0200 H   0  0  0  0  0  0  0  0  0  0  0  0
    4.5698    2.4607    2.0265 H   0  0  0  0  0  0  0  0  0  0  0  0
    1.8292    4.9281    1.6326 H   0  0  0  0  0  0  0  0  0  0  0  0
   -1.3048    2.0351    2.1545 H   0  0  0  0  0  0  0  0  0  0  0  0
    2.8113    0.7682    1.9534 H   0  0  0  0  0  0  0  0  0  0  0  0
   -0.1548   -0.2877    3.2911 H   0  0  0  0  0  0  0  0  0  0  0  0
   -0.7235   -0.3614    1.5997 H   0  0  0  0  0  0  0  0  0  0  0  0
    0.2181   -1.3811   -0.2171 H   0  0  0  0  0  0  0  0  0  0  0  0
    1.8668   -0.7488   -0.3171 H   0  0  0  0  0  0  0  0  0  0  0  0
    1.9733   -2.7624   -1.5500 H   0  0  0  0  0  0  0  0  0  0  0  0
    2.8658   -4.2668    0.8176 H   0  0  0  0  0  0  0  0  0  0  0  0
    4.0047   -1.0557    0.2672 H   0  0  0  0  0  0  0  0  0  0  0  0
    5.2973   -2.2431    2.0463 H   0  0  0  0  0  0  0  0  0  0  0  0
    6.1116   -0.7544    1.4534 H   0  0  0  0  0  0  0  0  0  0  0  0
    6.6886   -2.3727    0.9199 H   0  0  0  0  0  0  0  0  0  0  0  0
    6.3504   -1.7578   -1.5529 H   0  0  0  0  0  0  0  0  0  0  0  0
    0.5269   -4.9680    1.4694 H   0  0  0  0  0  0  0  0  0  0  0  0
   -1.5661   -2.9228    0.6913 H   0  0  0  0  0  0  0  0  0  0  0  0
   -2.5931   -3.4726    2.8843 H   0  0  0  0  0  0  0  0  0  0  0  0
   -1.3346   -4.7344    3.1673 H   0  0  0  0  0  0  0  0  0  0  0  0
   -0.8661   -3.0000    3.0682 H   0  0  0  0  0  0  0  0  0  0  0  0
   -4.4080   -4.9231    0.4799 H   0  0  0  0  0  0  0  0  0  0  0  0
   -4.7385   -4.0086   -1.6279 H   0  0  0  0  0  0  0  0  0  0  0  0
   -3.6978   -6.1839   -2.1379 H   0  0  0  0  0  0  0  0  0  0  0  0
   -3.3331   -4.9426   -3.3879 H   0  0  0  0  0  0  0  0  0  0  0  0
   -2.0675   -5.4276   -2.1829 H   0  0  0  0  0  0  0  0  0  0  0  0
   -2.9347   -0.7113   -1.2904 H   0  0  0  0  0  0  0  0  0  0  0  0
   -3.9802   -2.1483    0.9715 H   0  0  0  0  0  0  0  0  0  0  0  0
   -5.9770   -1.8087   -1.2911 H   0  0  0  0  0  0  0  0  0  0  0  0
   -5.9074   -3.0181    0.0447 H   0  0  0  0  0  0  0  0  0  0  0  0
   -6.5545   -1.3940    0.3724 H   0  0  0  0  0  0  0  0  0  0  0  0
   -5.9080    1.2862    1.0782 H   0  0  0  0  0  0  0  0  0  0  0  0
   -5.9731    2.5187   -0.8346 H   0  0  0  0  0  0  0  0  0  0  0  0
   -5.8043    1.5213   -3.0370 H   0  0  0  0  0  0  0  0  0  0  0  0
   -6.6953    0.4007   -1.9528 H   0  0  0  0  0  0  0  0  0  0  0  0
   -4.9659    0.0654   -2.3935 H   0  0  0  0  0  0  0  0  0  0  0  0
   -3.3300    3.0453    0.7876 H   0  0  0  0  0  0  0  0  0  0  0  0
   -3.4159    4.7582   -1.7330 H   0  0  0  0  0  0  0  0  0  0  0  0
   -4.6728    4.5767    1.6623 H   0  0  0  0  0  0  0  0  0  0  0  0
   -4.8784    6.3476    1.8147 H   0  0  0  0  0  0  0  0  0  0  0  0
   -1.0539    3.7403   -0.6576 H   0  0  0  0  0  0  0  0  0  0  0  0
   -1.2157    5.1682   -1.7026 H   0  0  0  0  0  0  0  0  0  0  0  0
   -0.6813    5.2988    2.8915 H   0  0  0  0  0  0  0  0  0  0  0  0
   -1.9041    4.3203    2.0446 H   0  0  0  0  0  0  0  0  0  0  0  0
  1  2  1  0
  2  3  2  0
  2  4  1  0
  4  5  1  0
  5  6  1  0
  6  7  1  0
  7  8  1  0
  8  9  1  0
  9 10  1  0
 10 11  2  0
 11 12  1  0
 12 13  2  0
 13 14  1  0
 13 15  1  0
 15 16  1  0
 16 17  1  0
 17 18  1  0
 18 19  1  0
 19 20  1  0
 20 21  2  0
 20 22  1  0
 22 23  1  0
 22 24  1  0
 24 25  1  0
 25 26  2  0
 18 27  1  0
 27 28  2  0
 27 29  1  0
 29 30  1  0
 30 31  1  0
 30 32  1  0
 32 33  2  0
 32 34  1  0
 34 35  1  0
 35 36  1  0
 35 37  1  0
 37 38  2  0
 37 39  1  0
 39 40  1  0
 40 41  1  0
 40 42  1  0
 42 43  2  0
 42 44  1  0
 44 45  1  0
 45 46  1  0
 45 47  1  0
 47 48  2  0
 47 49  1  0
 49 50  1  0
 50 51  1  0
 51 52  1  0
 51 53  2  0
 50 54  1  0
 54 55  1  0
 55 56  1  0
 25  5  1  0
 14  9  2  0
 56 11  1  0
  1 57  1  0
  1 58  1  0
  1 59  1  0
  4 60  1  0
  5 61  1  6
  6 62  1  0
  6 63  1  0
  8 64  1  0
  8 65  1  0
 10 66  1  0
 12 67  1  0
 14 68  1  0
 15 69  1  0
 15 70  1  0
 17 71  1  0
 17 72  1  0
 18 73  1  6
 19 74  1  0
 22 75  1  1
 23 76  1  0
 23 77  1  0
 23 78  1  0
 24 79  1  0
 29 80  1  0
 30 81  1  6
 31 82  1  0
 31 83  1  0
 31 84  1  0
 34 85  1  0
 35 86  1  6
 36 87  1  0
 36 88  1  0
 36 89  1  0
 39 90  1  0
 40 91  1  1
 41 92  1  0
 41 93  1  0
 41 94  1  0
 44 95  1  0
 45 96  1  1
 46 97  1  0
 46 98  1  0
 46 99  1  0
 49100  1  0
 50101  1  6
 52102  1  0
 52103  1  0
 54104  1  0
 54105  1  0
 56106  1  0
 56107  1  0
M  END
