
     RDKit          3D

217219  0  0  0  0  0  0  0  0999 V2000
   -5.2235    8.4962   -0.4947 C   0  0  0  0  0  0  0  0  0  0  0  0
   -5.4182    7.3223    0.4169 C   0  0  0  0  0  0  0  0  0  0  0  0
   -5.3689    7.5083    1.6625 O   0  0  0  0  0  0  0  0  0  0  0  0
   -5.6907    6.0200   -0.1181 N   0  0  0  0  0  0  0  0  0  0  0  0
   -5.8579    4.8373    0.7283 C   0  0  2  0  0  0  0  0  0  0  0  0
   -5.1086    3.6387    0.1079 C   0  0  0  0  0  0  0  0  0  0  0  0
   -5.1585    2.1604    1.1879 S   0  0  0  0  0  0  0  0  0  0  0  0
   -3.7318    2.6151    2.2471 C   0  0  0  0  0  0  0  0  0  0  0  0
   -2.4288    2.3333    1.5562 C   0  0  0  0  0  0  0  0  0  0  0  0
   -1.5008    3.3733    1.3306 C   0  0  0  0  0  0  0  0  0  0  0  0
   -0.2307    3.0897    0.7964 C   0  0  0  0  0  0  0  0  0  0  0  0
    0.1019    1.7628    0.4674 C   0  0  0  0  0  0  0  0  0  0  0  0
   -0.8133    0.7226    0.7040 C   0  0  0  0  0  0  0  0  0  0  0  0
   -2.0729    1.0147    1.2448 C   0  0  0  0  0  0  0  0  0  0  0  0
   -0.4137   -0.7162    0.4928 C   0  0  0  0  0  0  0  0  0  0  0  0
   -1.2647   -1.4440   -0.9605 S   0  0  0  0  0  0  0  0  0  0  0  0
   -2.0914   -2.8199   -0.0785 C   0  0  0  0  0  0  0  0  0  0  0  0
   -1.0819   -3.8847    0.4316 C   0  0  1  0  0  0  0  0  0  0  0  0
   -1.4205   -4.2964    1.8022 N   0  0  0  0  0  0  0  0  0  0  0  0
   -2.7253   -4.6870    2.2699 C   0  0  0  0  0  0  0  0  0  0  0  0
   -3.0545   -4.4039    3.4535 O   0  0  0  0  0  0  0  0  0  0  0  0
   -3.6796   -5.4980    1.4255 C   0  0  1  0  0  0  0  0  0  0  0  0
   -3.9951   -6.8161    2.1325 C   0  0  0  0  0  0  0  0  0  0  0  0
   -4.9097   -4.7440    1.1730 N   0  0  0  0  0  0  0  0  0  0  0  0
   -5.4261   -4.4659   -0.1390 C   0  0  0  0  0  0  0  0  0  0  0  0
   -5.6787   -3.2702   -0.4437 O   0  0  0  0  0  0  0  0  0  0  0  0
   -5.7864   -5.5699   -1.1202 C   0  0  1  0  0  0  0  0  0  0  0  0
   -4.5645   -6.1034   -1.8749 C   0  0  0  0  0  0  0  0  0  0  0  0
   -6.4905   -6.6603   -0.4328 N   0  0  0  0  0  0  0  0  0  0  0  0
   -7.7699   -6.5124    0.2038 C   0  0  0  0  0  0  0  0  0  0  0  0
   -8.0009   -7.1711    1.2593 O   0  0  0  0  0  0  0  0  0  0  0  0
   -8.8944   -5.7370   -0.4526 C   0  0  1  0  0  0  0  0  0  0  0  0
   -9.6393   -6.6761   -1.4045 C   0  0  0  0  0  0  0  0  0  0  0  0
   -9.8291   -5.1843    0.5367 N   0  0  0  0  0  0  0  0  0  0  0  0
  -10.6980   -4.0559    0.2994 C   0  0  0  0  0  0  0  0  0  0  0  0
  -11.5136   -3.7304    1.2069 O   0  0  0  0  0  0  0  0  0  0  0  0
  -10.6387   -3.2254   -0.9681 C   0  0  1  0  0  0  0  0  0  0  0  0
  -12.0350   -2.8522   -1.4880 C   0  0  0  0  0  0  0  0  0  0  0  0
   -9.7513   -2.0734   -0.7752 N   0  0  0  0  0  0  0  0  0  0  0  0
  -10.1617   -0.7080   -0.5737 C   0  0  0  0  0  0  0  0  0  0  0  0
   -9.6387    0.1900   -1.2965 O   0  0  0  0  0  0  0  0  0  0  0  0
  -11.0990   -0.3053    0.5350 C   0  0  1  0  0  0  0  0  0  0  0  0
  -10.3457    0.4758    1.6201 C   0  0  0  0  0  0  0  0  0  0  0  0
  -12.2464    0.4347   -0.0168 N   0  0  0  0  0  0  0  0  0  0  0  0
  -12.5542    1.7978    0.2871 C   0  0  0  0  0  0  0  0  0  0  0  0
  -13.5786    2.0508    0.9755 O   0  0  0  0  0  0  0  0  0  0  0  0
  -11.7625    2.9252   -0.3304 C   0  0  1  0  0  0  0  0  0  0  0  0
  -12.6062    3.6111   -1.4137 C   0  0  0  0  0  0  0  0  0  0  0  0
  -11.3670    3.8984    0.6972 N   0  0  0  0  0  0  0  0  0  0  0  0
  -10.4066    4.9430    0.4934 C   0  0  0  0  0  0  0  0  0  0  0  0
  -10.4054    5.9044    1.3026 O   0  0  0  0  0  0  0  0  0  0  0  0
   -9.3613    4.8855   -0.6028 C   0  0  1  0  0  0  0  0  0  0  0  0
   -8.9780    6.2930   -1.0885 C   0  0  0  0  0  0  0  0  0  0  0  0
   -8.1668    4.1561   -0.1575 N   0  0  0  0  0  0  0  0  0  0  0  0
   -7.3332    4.5762    0.9292 C   0  0  0  0  0  0  0  0  0  0  0  0
   -7.8439    4.8373    2.0536 O   0  0  0  0  0  0  0  0  0  0  0  0
   -0.9169   -5.0782   -0.4926 C   0  0  0  0  0  0  0  0  0  0  0  0
   -1.0352   -4.9340   -1.7441 O   0  0  0  0  0  0  0  0  0  0  0  0
   -0.5140   -6.3526    0.0147 N   0  0  0  0  0  0  0  0  0  0  0  0
    0.7148   -6.9933   -0.4672 C   0  0  2  0  0  0  0  0  0  0  0  0
    0.7841   -8.4458    0.0121 C   0  0  0  0  0  0  0  0  0  0  0  0
    1.9165   -6.2189    0.0042 C   0  0  0  0  0  0  0  0  0  0  0  0
    1.8660   -5.5618    1.0837 O   0  0  0  0  0  0  0  0  0  0  0  0
    3.1134   -6.1864   -0.7908 N   0  0  0  0  0  0  0  0  0  0  0  0
    3.8663   -4.9416   -0.9550 C   0  0  2  0  0  0  0  0  0  0  0  0
    2.9662   -3.8491   -1.5714 C   0  0  0  0  0  0  0  0  0  0  0  0
    5.0740   -5.1887   -1.8334 C   0  0  0  0  0  0  0  0  0  0  0  0
    4.9063   -5.3347   -3.0727 O   0  0  0  0  0  0  0  0  0  0  0  0
    6.4113   -5.2520   -1.3041 N   0  0  0  0  0  0  0  0  0  0  0  0
    6.7480   -5.5532    0.0885 C   0  0  2  0  0  0  0  0  0  0  0  0
    7.1856   -4.2734    0.8115 C   0  0  0  0  0  0  0  0  0  0  0  0
    7.7586   -6.6814    0.1383 C   0  0  0  0  0  0  0  0  0  0  0  0
    7.4703   -7.7708   -0.4253 O   0  0  0  0  0  0  0  0  0  0  0  0
    8.9609   -6.6047    0.9112 N   0  0  0  0  0  0  0  0  0  0  0  0
   10.0962   -5.7513    0.5373 C   0  0  2  0  0  0  0  0  0  0  0  0
   11.1930   -6.6241   -0.1043 C   0  0  0  0  0  0  0  0  0  0  0  0
   10.6373   -5.0282    1.7613 C   0  0  0  0  0  0  0  0  0  0  0  0
   10.2440   -5.3909    2.9011 O   0  0  0  0  0  0  0  0  0  0  0  0
   11.5911   -3.9597    1.6631 N   0  0  0  0  0  0  0  0  0  0  0  0
   11.8800   -3.1872    0.4497 C   0  0  2  0  0  0  0  0  0  0  0  0
   13.3961   -2.9998    0.3141 C   0  0  0  0  0  0  0  0  0  0  0  0
   11.1184   -1.8887    0.4843 C   0  0  0  0  0  0  0  0  0  0  0  0
    9.8549   -1.9243    0.5071 O   0  0  0  0  0  0  0  0  0  0  0  0
   11.7793   -0.6190    0.4324 N   0  0  0  0  0  0  0  0  0  0  0  0
   11.2172    0.4891   -0.3613 C   0  0  2  0  0  0  0  0  0  0  0  0
   11.2492    0.1174   -1.8426 C   0  0  0  0  0  0  0  0  0  0  0  0
   11.9436    1.7972   -0.1415 C   0  0  0  0  0  0  0  0  0  0  0  0
   12.8966    1.8851    0.6674 O   0  0  0  0  0  0  0  0  0  0  0  0
   11.5507    2.9592   -0.8770 N   0  0  0  0  0  0  0  0  0  0  0  0
   10.5724    3.9429   -0.3785 C   0  0  2  0  0  0  0  0  0  0  0  0
    9.4636    3.2794    0.4528 C   0  0  0  0  0  0  0  0  0  0  0  0
    9.9826    4.7317   -1.5237 C   0  0  0  0  0  0  0  0  0  0  0  0
   10.3777    4.5486   -2.7088 O   0  0  0  0  0  0  0  0  0  0  0  0
    8.9813    5.7178   -1.2676 N   0  0  0  0  0  0  0  0  0  0  0  0
    9.1543    7.1028   -1.7275 C   0  0  2  0  0  0  0  0  0  0  0  0
   10.2458    7.7919   -0.9093 C   0  0  0  0  0  0  0  0  0  0  0  0
    7.8280    7.8263   -1.6613 C   0  0  0  0  0  0  0  0  0  0  0  0
    7.1015    7.8501   -2.6945 O   0  0  0  0  0  0  0  0  0  0  0  0
    7.3272    8.3585   -0.4218 N   0  0  0  0  0  0  0  0  0  0  0  0
    5.8969    8.5875   -0.2015 C   0  0  2  0  0  0  0  0  0  0  0  0
    5.6540    9.4835    1.0103 C   0  0  0  0  0  0  0  0  0  0  0  0
    5.1712    7.2728   -0.0328 C   0  0  0  0  0  0  0  0  0  0  0  0
    5.4611    6.5103    0.9282 O   0  0  0  0  0  0  0  0  0  0  0  0
    4.1217    6.9017   -0.9397 N   0  0  0  0  0  0  0  0  0  0  0  0
    2.7526    6.7070   -0.4444 C   0  0  1  0  0  0  0  0  0  0  0  0
    2.0282    8.0364   -0.4737 C   0  0  0  0  0  0  0  0  0  0  0  0
    1.5812    8.6632    0.7257 N   0  0  0  0  0  0  0  0  0  0  0  0
    1.8403    8.6093   -1.5782 O   0  0  0  0  0  0  0  0  0  0  0  0
    2.0228    5.6802   -1.3298 C   0  0  0  0  0  0  0  0  0  0  0  0
    0.3243    5.2982   -0.7406 S   0  0  0  0  0  0  0  0  0  0  0  0
    0.7874    4.1979    0.6431 C   0  0  0  0  0  0  0  0  0  0  0  0
   -5.3305    8.2001   -1.5596 H   0  0  0  0  0  0  0  0  0  0  0  0
   -4.2091    8.9137   -0.3434 H   0  0  0  0  0  0  0  0  0  0  0  0
   -5.9830    9.2709   -0.2681 H   0  0  0  0  0  0  0  0  0  0  0  0
   -5.8735    5.9265   -1.1441 H   0  0  0  0  0  0  0  0  0  0  0  0
   -5.4033    5.0350    1.7176 H   0  0  0  0  0  0  0  0  0  0  0  0
   -4.0578    3.9292   -0.1015 H   0  0  0  0  0  0  0  0  0  0  0  0
   -5.5690    3.3756   -0.8705 H   0  0  0  0  0  0  0  0  0  0  0  0
   -3.7728    1.9951    3.1698 H   0  0  0  0  0  0  0  0  0  0  0  0
   -3.7911    3.6756    2.5633 H   0  0  0  0  0  0  0  0  0  0  0  0
   -1.7555    4.3976    1.5956 H   0  0  0  0  0  0  0  0  0  0  0  0
    1.0914    1.5339    0.0829 H   0  0  0  0  0  0  0  0  0  0  0  0
   -2.7586    0.2037    1.4615 H   0  0  0  0  0  0  0  0  0  0  0  0
    0.6843   -0.7934    0.3209 H   0  0  0  0  0  0  0  0  0  0  0  0
   -0.6482   -1.2719    1.4295 H   0  0  0  0  0  0  0  0  0  0  0  0
   -2.8265   -3.2830   -0.7696 H   0  0  0  0  0  0  0  0  0  0  0  0
   -2.6762   -2.3875    0.7588 H   0  0  0  0  0  0  0  0  0  0  0  0
   -0.0718   -3.4241    0.4691 H   0  0  0  0  0  0  0  0  0  0  0  0
   -0.7042   -4.0936    2.5352 H   0  0  0  0  0  0  0  0  0  0  0  0
   -3.1959   -5.7418    0.4652 H   0  0  0  0  0  0  0  0  0  0  0  0
   -3.0626   -7.2964    2.5011 H   0  0  0  0  0  0  0  0  0  0  0  0
   -4.4820   -7.5213    1.4296 H   0  0  0  0  0  0  0  0  0  0  0  0
   -4.6781   -6.6348    2.9893 H   0  0  0  0  0  0  0  0  0  0  0  0
   -5.3488   -4.2429    1.9808 H   0  0  0  0  0  0  0  0  0  0  0  0
   -6.4552   -5.1378   -1.8992 H   0  0  0  0  0  0  0  0  0  0  0  0
   -4.8998   -6.6300   -2.7926 H   0  0  0  0  0  0  0  0  0  0  0  0
   -3.9942   -6.8339   -1.2659 H   0  0  0  0  0  0  0  0  0  0  0  0
   -3.8971   -5.2748   -2.1847 H   0  0  0  0  0  0  0  0  0  0  0  0
   -5.9807   -7.5547   -0.2551 H   0  0  0  0  0  0  0  0  0  0  0  0
   -8.4478   -4.9029   -1.0205 H   0  0  0  0  0  0  0  0  0  0  0  0
  -10.4653   -6.1428   -1.9198 H   0  0  0  0  0  0  0  0  0  0  0  0
  -10.0670   -7.5377   -0.8410 H   0  0  0  0  0  0  0  0  0  0  0  0
   -8.9393   -7.0685   -2.1727 H   0  0  0  0  0  0  0  0  0  0  0  0
   -9.9728   -5.6952    1.4348 H   0  0  0  0  0  0  0  0  0  0  0  0
  -10.2059   -3.8333   -1.7904 H   0  0  0  0  0  0  0  0  0  0  0  0
  -12.5653   -3.7683   -1.8211 H   0  0  0  0  0  0  0  0  0  0  0  0
  -11.9501   -2.1644   -2.3612 H   0  0  0  0  0  0  0  0  0  0  0  0
  -12.6480   -2.3686   -0.7040 H   0  0  0  0  0  0  0  0  0  0  0  0
   -8.7451   -2.2147   -1.0408 H   0  0  0  0  0  0  0  0  0  0  0  0
  -11.4917   -1.2154    1.0208 H   0  0  0  0  0  0  0  0  0  0  0  0
   -9.5413   -0.1626    2.0566 H   0  0  0  0  0  0  0  0  0  0  0  0
   -9.8857    1.3939    1.2076 H   0  0  0  0  0  0  0  0  0  0  0  0
  -11.0457    0.7480    2.4308 H   0  0  0  0  0  0  0  0  0  0  0  0
  -12.9828   -0.1153   -0.5085 H   0  0  0  0  0  0  0  0  0  0  0  0
  -10.8592    2.4895   -0.7988 H   0  0  0  0  0  0  0  0  0  0  0  0
  -12.0206    4.3857   -1.9448 H   0  0  0  0  0  0  0  0  0  0  0  0
  -12.9448    2.8703   -2.1676 H   0  0  0  0  0  0  0  0  0  0  0  0
  -13.5027    4.0971   -0.9669 H   0  0  0  0  0  0  0  0  0  0  0  0
  -11.9222    3.9270    1.5874 H   0  0  0  0  0  0  0  0  0  0  0  0
   -9.7783    4.3669   -1.4749 H   0  0  0  0  0  0  0  0  0  0  0  0
   -8.5535    6.8976   -0.2621 H   0  0  0  0  0  0  0  0  0  0  0  0
   -9.8699    6.8071   -1.5033 H   0  0  0  0  0  0  0  0  0  0  0  0
   -8.2165    6.2065   -1.8969 H   0  0  0  0  0  0  0  0  0  0  0  0
   -7.8172    3.3976   -0.7854 H   0  0  0  0  0  0  0  0  0  0  0  0
   -0.9357   -6.6956    0.9056 H   0  0  0  0  0  0  0  0  0  0  0  0
    0.6962   -7.0105   -1.5780 H   0  0  0  0  0  0  0  0  0  0  0  0
    0.8007   -8.4932    1.1261 H   0  0  0  0  0  0  0  0  0  0  0  0
    1.6977   -8.9365   -0.3912 H   0  0  0  0  0  0  0  0  0  0  0  0
   -0.1056   -9.0064   -0.3457 H   0  0  0  0  0  0  0  0  0  0  0  0
    3.6221   -7.1041   -0.8783 H   0  0  0  0  0  0  0  0  0  0  0  0
    4.1865   -4.5728    0.0453 H   0  0  0  0  0  0  0  0  0  0  0  0
    2.1897   -3.5520   -0.8415 H   0  0  0  0  0  0  0  0  0  0  0  0
    3.5713   -2.9488   -1.8129 H   0  0  0  0  0  0  0  0  0  0  0  0
    2.4757   -4.2149   -2.4966 H   0  0  0  0  0  0  0  0  0  0  0  0
    7.1958   -5.1444   -1.9972 H   0  0  0  0  0  0  0  0  0  0  0  0
    5.8543   -5.9461    0.6142 H   0  0  0  0  0  0  0  0  0  0  0  0
    6.3312   -3.5728    0.8983 H   0  0  0  0  0  0  0  0  0  0  0  0
    7.5431   -4.5015    1.8346 H   0  0  0  0  0  0  0  0  0  0  0  0
    7.9774   -3.7474    0.2425 H   0  0  0  0  0  0  0  0  0  0  0  0
    9.1582   -7.4171    1.5448 H   0  0  0  0  0  0  0  0  0  0  0  0
    9.7587   -5.0107   -0.2145 H   0  0  0  0  0  0  0  0  0  0  0  0
   11.4369   -7.4745    0.5626 H   0  0  0  0  0  0  0  0  0  0  0  0
   10.8306   -7.0206   -1.0741 H   0  0  0  0  0  0  0  0  0  0  0  0
   12.1165   -6.0385   -0.2753 H   0  0  0  0  0  0  0  0  0  0  0  0
   11.9521   -3.5756    2.5644 H   0  0  0  0  0  0  0  0  0  0  0  0
   11.5515   -3.7287   -0.4563 H   0  0  0  0  0  0  0  0  0  0  0  0
   13.8281   -2.5241    1.2226 H   0  0  0  0  0  0  0  0  0  0  0  0
   13.6212   -2.3752   -0.5740 H   0  0  0  0  0  0  0  0  0  0  0  0
   13.8906   -3.9842    0.1683 H   0  0  0  0  0  0  0  0  0  0  0  0
   12.6472   -0.4830    1.0087 H   0  0  0  0  0  0  0  0  0  0  0  0
   10.1589    0.6290   -0.0565 H   0  0  0  0  0  0  0  0  0  0  0  0
   10.6960   -0.8207   -2.0286 H   0  0  0  0  0  0  0  0  0  0  0  0
   10.7682    0.9177   -2.4530 H   0  0  0  0  0  0  0  0  0  0  0  0
   12.2912   -0.0125   -2.1876 H   0  0  0  0  0  0  0  0  0  0  0  0
   12.2957    3.3311   -1.5285 H   0  0  0  0  0  0  0  0  0  0  0  0
   11.1104    4.6613    0.2750 H   0  0  0  0  0  0  0  0  0  0  0  0
    9.8963    2.7052    1.2935 H   0  0  0  0  0  0  0  0  0  0  0  0
    8.8076    4.0577    0.9048 H   0  0  0  0  0  0  0  0  0  0  0  0
    8.8428    2.6099   -0.1838 H   0  0  0  0  0  0  0  0  0  0  0  0
    8.0995    5.4356   -0.7798 H   0  0  0  0  0  0  0  0  0  0  0  0
    9.4693    7.0902   -2.7910 H   0  0  0  0  0  0  0  0  0  0  0  0
   11.2334    7.3250   -1.1164 H   0  0  0  0  0  0  0  0  0  0  0  0
   10.3049    8.8706   -1.1720 H   0  0  0  0  0  0  0  0  0  0  0  0
   10.0477    7.6879    0.1845 H   0  0  0  0  0  0  0  0  0  0  0  0
    8.0138    8.8686    0.1925 H   0  0  0  0  0  0  0  0  0  0  0  0
    5.4810    9.1124   -1.0905 H   0  0  0  0  0  0  0  0  0  0  0  0
    6.0434   10.5050    0.8000 H   0  0  0  0  0  0  0  0  0  0  0  0
    6.1799    9.0790    1.9049 H   0  0  0  0  0  0  0  0  0  0  0  0
    4.5709    9.5584    1.2301 H   0  0  0  0  0  0  0  0  0  0  0  0
    4.2223    7.2392   -1.9235 H   0  0  0  0  0  0  0  0  0  0  0  0
    2.7944    6.3171    0.6025 H   0  0  0  0  0  0  0  0  0  0  0  0
    1.7442    8.2176    1.6543 H   0  0  0  0  0  0  0  0  0  0  0  0
    1.0755    9.5707    0.6758 H   0  0  0  0  0  0  0  0  0  0  0  0
    1.9302    6.0817   -2.3603 H   0  0  0  0  0  0  0  0  0  0  0  0
    2.6116    4.7315   -1.4196 H   0  0  0  0  0  0  0  0  0  0  0  0
    1.7929    3.7603    0.4824 H   0  0  0  0  0  0  0  0  0  0  0  0
    0.8246    4.8019    1.5769 H   0  0  0  0  0  0  0  0  0  0  0  0
  1  2  1  0
  2  3  2  0
  2  4  1  0
  4  5  1  0
  5  6  1  0
  6  7  1  0
  7  8  1  0
  8  9  1  0
  9 10  1  0
 10 11  2  0
 11 12  1  0
 12 13  2  0
 13 14  1  0
 13 15  1  0
 15 16  1  0
 16 17  1  0
 17 18  1  0
 18 19  1  0
 19 20  1  0
 20 21  2  0
 20 22  1  0
 22 23  1  0
 22 24  1  0
 24 25  1  0
 25 26  2  0
 25 27  1  0
 27 28  1  0
 27 29  1  0
 29 30  1  0
 30 31  2  0
 30 32  1  0
 32 33  1  0
 32 34  1  0
 34 35  1  0
 35 36  2  0
 35 37  1  0
 37 38  1  0
 37 39  1  0
 39 40  1  0
 40 41  2  0
 40 42  1  0
 42 43  1  0
 42 44  1  0
 44 45  1  0
 45 46  2  0
 45 47  1  0
 47 48  1  0
 47 49  1  0
 49 50  1  0
 50 51  2  0
 50 52  1  0
 52 53  1  0
 52 54  1  0
 54 55  1  0
 55 56  2  0
 18 57  1  0
 57 58  2  0
 57 59  1  0
 59 60  1  0
 60 61  1  0
 60 62  1  0
 62 63  2  0
 62 64  1  0
 64 65  1  0
 65 66  1  0
 65 67  1  0
 67 68  2  0
 67 69  1  0
 69 70  1  0
 70 71  1  0
 70 72  1  0
 72 73  2  0
 72 74  1  0
 74 75  1  0
 75 76  1  0
 75 77  1  0
 77 78  2  0
 77 79  1  0
 79 80  1  0
 80 81  1  0
 80 82  1  0
 82 83  2  0
 82 84  1  0
 84 85  1  0
 85 86  1  0
 85 87  1  0
 87 88  2  0
 87 89  1  0
 89 90  1  0
 90 91  1  0
 90 92  1  0
 92 93  2  0
 92 94  1  0
 94 95  1  0
 95 96  1  0
 95 97  1  0
 97 98  2  0
 97 99  1  0
 99100  1  0
100101  1  0
100102  1  0
102103  2  0
102104  1  0
104105  1  0
105106  1  0
106107  1  0
106108  2  0
105109  1  0
109110  1  0
110111  1  0
 55  5  1  0
 14  9  2  0
111 11  1  0
  1112  1  0
  1113  1  0
  1114  1  0
  4115  1  0
  5116  1  1
  6117  1  0
  6118  1  0
  8119  1  0
  8120  1  0
 10121  1  0
 12122  1  0
 14123  1  0
 15124  1  0
 15125  1  0
 17126  1  0
 17127  1  0
 18128  1  1
 19129  1  0
 22130  1  6
 23131  1  0
 23132  1  0
 23133  1  0
 24134  1  0
 27135  1  6
 28136  1  0
 28137  1  0
 28138  1  0
 29139  1  0
 32140  1  6
 33141  1  0
 33142  1  0
 33143  1  0
 34144  1  0
 37145  1  6
 38146  1  0
 38147  1  0
 38148  1  0
 39149  1  0
 42150  1  1
 43151  1  0
 43152  1  0
 43153  1  0
 44154  1  0
 47155  1  6
 48156  1  0
 48157  1  0
 48158  1  0
 49159  1  0
 52160  1  6
 53161  1  0
 53162  1  0
 53163  1  0
 54164  1  0
 59165  1  0
 60166  1  6
 61167  1  0
 61168  1  0
 61169  1  0
 64170  1  0
 65171  1  1
 66172  1  0
 66173  1  0
 66174  1  0
 69175  1  0
 70176  1  1
 71177  1  0
 71178  1  0
 71179  1  0
 74180  1  0
 75181  1  6
 76182  1  0
 76183  1  0
 76184  1  0
 79185  1  0
 80186  1  6
 81187  1  0
 81188  1  0
 81189  1  0
 84190  1  0
 85191  1  1
 86192  1  0
 86193  1  0
 86194  1  0
 89195  1  0
 90196  1  1
 91197  1  0
 91198  1  0
 91199  1  0
 94200  1  0
 95201  1  6
 96202  1  0
 96203  1  0
 96204  1  0
 99205  1  0
100206  1  6
101207  1  0
101208  1  0
101209  1  0
104210  1  0
105211  1  1
107212  1  0
107213  1  0
109214  1  0
109215  1  0
111216  1  0
111217  1  0
M  END
