
     RDKit          3D

207209  0  0  0  0  0  0  0  0999 V2000
    5.8657    9.1110    1.3680 C   0  0  0  0  0  0  0  0  0  0  0  0
    5.8125    7.6697    0.9740 C   0  0  0  0  0  0  0  0  0  0  0  0
    6.4217    7.2808   -0.0562 O   0  0  0  0  0  0  0  0  0  0  0  0
    5.0845    6.7373    1.7913 N   0  0  0  0  0  0  0  0  0  0  0  0
    4.9717    5.3001    1.5008 C   0  0  1  0  0  0  0  0  0  0  0  0
    4.2346    5.0498    0.1734 C   0  0  0  0  0  0  0  0  0  0  0  0
    2.6483    5.9580    0.1348 S   0  0  0  0  0  0  0  0  0  0  0  0
    1.8725    5.0007   -1.2210 C   0  0  0  0  0  0  0  0  0  0  0  0
    0.8257    4.0721   -0.6652 C   0  0  0  0  0  0  0  0  0  0  0  0
   -0.2618    4.6000    0.0537 C   0  0  0  0  0  0  0  0  0  0  0  0
   -1.2408    3.7514    0.5904 C   0  0  0  0  0  0  0  0  0  0  0  0
   -1.1392    2.3626    0.3898 C   0  0  0  0  0  0  0  0  0  0  0  0
   -0.0838    1.8292   -0.3564 C   0  0  0  0  0  0  0  0  0  0  0  0
    0.9116    2.6832   -0.8619 C   0  0  0  0  0  0  0  0  0  0  0  0
    0.0242    0.3454   -0.5331 C   0  0  0  0  0  0  0  0  0  0  0  0
    0.7892   -0.3779    0.9640 S   0  0  0  0  0  0  0  0  0  0  0  0
    1.9817   -1.4908    0.1301 C   0  0  0  0  0  0  0  0  0  0  0  0
    1.4415   -2.9180   -0.0760 C   0  0  1  0  0  0  0  0  0  0  0  0
    1.2938   -3.6077    1.2131 N   0  0  0  0  0  0  0  0  0  0  0  0
    2.4172   -4.1502    1.9206 C   0  0  0  0  0  0  0  0  0  0  0  0
    2.7462   -3.6183    3.0162 O   0  0  0  0  0  0  0  0  0  0  0  0
    3.1152   -5.4243    1.4960 C   0  0  1  0  0  0  0  0  0  0  0  0
    2.3180   -6.6354    1.9871 C   0  0  0  0  0  0  0  0  0  0  0  0
    3.2827   -5.5008    0.0407 N   0  0  0  0  0  0  0  0  0  0  0  0
    4.4748   -5.1899   -0.7125 C   0  0  0  0  0  0  0  0  0  0  0  0
    4.4606   -5.3900   -1.9582 O   0  0  0  0  0  0  0  0  0  0  0  0
    5.7533   -4.6521   -0.1023 C   0  0  1  0  0  0  0  0  0  0  0  0
    5.5247   -3.3283    0.6337 C   0  0  0  0  0  0  0  0  0  0  0  0
    6.3774   -5.6558    0.7665 N   0  0  0  0  0  0  0  0  0  0  0  0
    7.6227   -5.4425    1.4390 C   0  0  0  0  0  0  0  0  0  0  0  0
    7.6344   -5.4074    2.6969 O   0  0  0  0  0  0  0  0  0  0  0  0
    8.9241   -5.2980    0.6929 C   0  0  1  0  0  0  0  0  0  0  0  0
    8.9569   -6.1118   -0.6040 C   0  0  0  0  0  0  0  0  0  0  0  0
    9.1996   -3.8858    0.4162 N   0  0  0  0  0  0  0  0  0  0  0  0
   10.2538   -3.1793    1.0784 C   0  0  0  0  0  0  0  0  0  0  0  0
    9.9863   -2.4595    2.0788 O   0  0  0  0  0  0  0  0  0  0  0  0
   11.6751   -3.2895    0.5941 C   0  0  1  0  0  0  0  0  0  0  0  0
   12.3975   -4.4562    1.2735 C   0  0  0  0  0  0  0  0  0  0  0  0
   11.6974   -3.4594   -0.8633 N   0  0  0  0  0  0  0  0  0  0  0  0
   11.4783   -2.3946   -1.8046 C   0  0  0  0  0  0  0  0  0  0  0  0
   11.1989   -2.7001   -2.9956 O   0  0  0  0  0  0  0  0  0  0  0  0
   11.7264   -0.9414   -1.4479 C   0  0  1  0  0  0  0  0  0  0  0  0
   13.2296   -0.6660   -1.5807 C   0  0  0  0  0  0  0  0  0  0  0  0
   10.9547   -0.0361   -2.3112 N   0  0  0  0  0  0  0  0  0  0  0  0
   11.1351    1.3855   -2.2856 C   0  0  0  0  0  0  0  0  0  0  0  0
   11.7371    1.9343   -3.2482 O   0  0  0  0  0  0  0  0  0  0  0  0
   10.6279    2.2210   -1.1343 C   0  0  1  0  0  0  0  0  0  0  0  0
   11.7485    2.5161   -0.1393 C   0  0  0  0  0  0  0  0  0  0  0  0
   10.0688    3.4775   -1.6436 N   0  0  0  0  0  0  0  0  0  0  0  0
    8.8563    4.0764   -1.1722 C   0  0  0  0  0  0  0  0  0  0  0  0
    8.1559    4.7389   -1.9865 O   0  0  0  0  0  0  0  0  0  0  0  0
    8.4882    4.0888    0.2950 C   0  0  1  0  0  0  0  0  0  0  0  0
    9.1814    5.3009    0.9397 C   0  0  0  0  0  0  0  0  0  0  0  0
    7.0227    4.1482    0.4379 N   0  0  0  0  0  0  0  0  0  0  0  0
    6.3349    4.6480    1.5992 C   0  0  0  0  0  0  0  0  0  0  0  0
    6.8899    4.5860    2.7244 O   0  0  0  0  0  0  0  0  0  0  0  0
    0.1565   -2.9513   -0.8682 C   0  0  0  0  0  0  0  0  0  0  0  0
    0.1937   -2.7600   -2.1120 O   0  0  0  0  0  0  0  0  0  0  0  0
   -1.1060   -3.1944   -0.2331 N   0  0  0  0  0  0  0  0  0  0  0  0
   -1.7762   -4.5063   -0.1966 C   0  0  2  0  0  0  0  0  0  0  0  0
   -0.9264   -5.6236   -0.8194 C   0  0  0  0  0  0  0  0  0  0  0  0
   -3.1181   -4.4361   -0.8867 C   0  0  0  0  0  0  0  0  0  0  0  0
   -3.3892   -3.4477   -1.6217 O   0  0  0  0  0  0  0  0  0  0  0  0
   -4.0557   -5.5221   -0.8319 N   0  0  0  0  0  0  0  0  0  0  0  0
   -4.3665   -6.2909    0.3816 C   0  0  2  0  0  0  0  0  0  0  0  0
   -4.2664   -7.7848    0.0812 C   0  0  0  0  0  0  0  0  0  0  0  0
   -5.7549   -5.9690    0.8853 C   0  0  0  0  0  0  0  0  0  0  0  0
   -6.1070   -6.3795    2.0290 O   0  0  0  0  0  0  0  0  0  0  0  0
   -6.6943   -5.2700    0.0564 N   0  0  0  0  0  0  0  0  0  0  0  0
   -8.1025   -5.6615   -0.0736 C   0  0  2  0  0  0  0  0  0  0  0  0
   -8.2266   -7.1906   -0.2283 C   0  0  0  0  0  0  0  0  0  0  0  0
   -8.6955   -5.0001   -1.2947 C   0  0  0  0  0  0  0  0  0  0  0  0
   -8.1111   -5.1648   -2.4008 O   0  0  0  0  0  0  0  0  0  0  0  0
   -9.8846   -4.1881   -1.2613 N   0  0  0  0  0  0  0  0  0  0  0  0
  -10.8331   -4.0731   -0.1416 C   0  0  2  0  0  0  0  0  0  0  0  0
  -11.5642   -5.4034    0.0874 C   0  0  0  0  0  0  0  0  0  0  0  0
  -11.8511   -2.9939   -0.4557 C   0  0  0  0  0  0  0  0  0  0  0  0
  -12.5950   -3.1528   -1.4639 O   0  0  0  0  0  0  0  0  0  0  0  0
  -12.0379   -1.8127    0.3409 N   0  0  0  0  0  0  0  0  0  0  0  0
  -11.2134   -1.3957    1.4861 C   0  0  2  0  0  0  0  0  0  0  0  0
  -11.8650   -1.8750    2.7805 C   0  0  0  0  0  0  0  0  0  0  0  0
  -10.9957    0.1015    1.5109 C   0  0  0  0  0  0  0  0  0  0  0  0
  -10.1727    0.5873    2.3342 O   0  0  0  0  0  0  0  0  0  0  0  0
  -11.6504    0.9728    0.5693 N   0  0  0  0  0  0  0  0  0  0  0  0
  -10.8963    1.8350   -0.3462 C   0  0  2  0  0  0  0  0  0  0  0  0
   -9.9021    0.9977   -1.1621 C   0  0  0  0  0  0  0  0  0  0  0  0
  -10.2152    2.9648    0.3918 C   0  0  0  0  0  0  0  0  0  0  0  0
  -10.6896    3.3862    1.4810 O   0  0  0  0  0  0  0  0  0  0  0  0
   -9.0559    3.6063   -0.1602 N   0  0  0  0  0  0  0  0  0  0  0  0
   -9.1382    4.8068   -1.0013 C   0  0  2  0  0  0  0  0  0  0  0  0
  -10.3218    4.7605   -1.9705 C   0  0  0  0  0  0  0  0  0  0  0  0
   -7.8595    4.9533   -1.7937 C   0  0  0  0  0  0  0  0  0  0  0  0
   -7.3106    3.9168   -2.2517 O   0  0  0  0  0  0  0  0  0  0  0  0
   -7.2809    6.2285   -2.1069 N   0  0  0  0  0  0  0  0  0  0  0  0
   -7.6281    7.5032   -1.4622 C   0  0  2  0  0  0  0  0  0  0  0  0
   -6.8227    8.6545   -2.0766 C   0  0  0  0  0  0  0  0  0  0  0  0
   -7.4146    7.4801    0.0403 C   0  0  0  0  0  0  0  0  0  0  0  0
   -8.3779    7.8055    0.7763 O   0  0  0  0  0  0  0  0  0  0  0  0
   -6.1348    7.2633    0.6569 N   0  0  0  0  0  0  0  0  0  0  0  0
   -5.1249    6.2911    0.2247 C   0  0  1  0  0  0  0  0  0  0  0  0
   -3.8323    6.9850   -0.1107 C   0  0  0  0  0  0  0  0  0  0  0  0
   -3.3557    8.0945    0.6677 N   0  0  0  0  0  0  0  0  0  0  0  0
   -3.1533    6.5904   -1.1020 O   0  0  0  0  0  0  0  0  0  0  0  0
   -4.9399    5.2373    1.3270 C   0  0  0  0  0  0  0  0  0  0  0  0
   -3.9756    3.8111    0.7157 S   0  0  0  0  0  0  0  0  0  0  0  0
   -2.3665    4.3167    1.4124 C   0  0  0  0  0  0  0  0  0  0  0  0
    4.8383    9.5253    1.3972 H   0  0  0  0  0  0  0  0  0  0  0  0
    6.3305    9.2056    2.3725 H   0  0  0  0  0  0  0  0  0  0  0  0
    6.4634    9.6955    0.6349 H   0  0  0  0  0  0  0  0  0  0  0  0
    4.5427    7.1122    2.6023 H   0  0  0  0  0  0  0  0  0  0  0  0
    4.3459    4.8404    2.2959 H   0  0  0  0  0  0  0  0  0  0  0  0
    4.0398    3.9582    0.0729 H   0  0  0  0  0  0  0  0  0  0  0  0
    4.8463    5.3861   -0.6895 H   0  0  0  0  0  0  0  0  0  0  0  0
    2.6376    4.4459   -1.8137 H   0  0  0  0  0  0  0  0  0  0  0  0
    1.3909    5.7123   -1.9202 H   0  0  0  0  0  0  0  0  0  0  0  0
   -0.3346    5.6680    0.2076 H   0  0  0  0  0  0  0  0  0  0  0  0
   -1.8785    1.7000    0.8253 H   0  0  0  0  0  0  0  0  0  0  0  0
    1.7458    2.2690   -1.4107 H   0  0  0  0  0  0  0  0  0  0  0  0
    0.5903    0.1208   -1.4563 H   0  0  0  0  0  0  0  0  0  0  0  0
   -0.9870   -0.0968   -0.6634 H   0  0  0  0  0  0  0  0  0  0  0  0
    2.8726   -1.5442    0.7931 H   0  0  0  0  0  0  0  0  0  0  0  0
    2.3425   -1.0651   -0.8306 H   0  0  0  0  0  0  0  0  0  0  0  0
    2.1966   -3.4457   -0.6911 H   0  0  0  0  0  0  0  0  0  0  0  0
    0.4879   -3.3203    1.8142 H   0  0  0  0  0  0  0  0  0  0  0  0
    4.1013   -5.4780    2.0023 H   0  0  0  0  0  0  0  0  0  0  0  0
    2.8379   -7.5704    1.6846 H   0  0  0  0  0  0  0  0  0  0  0  0
    2.2355   -6.6193    3.0948 H   0  0  0  0  0  0  0  0  0  0  0  0
    1.2953   -6.6372    1.5526 H   0  0  0  0  0  0  0  0  0  0  0  0
    2.4584   -5.8215   -0.5189 H   0  0  0  0  0  0  0  0  0  0  0  0
    6.4501   -4.4302   -0.9350 H   0  0  0  0  0  0  0  0  0  0  0  0
    4.8819   -2.6570    0.0245 H   0  0  0  0  0  0  0  0  0  0  0  0
    6.4894   -2.8087    0.7966 H   0  0  0  0  0  0  0  0  0  0  0  0
    5.0680   -3.4789    1.6275 H   0  0  0  0  0  0  0  0  0  0  0  0
    5.8480   -6.5254    1.0251 H   0  0  0  0  0  0  0  0  0  0  0  0
    9.7200   -5.7057    1.3540 H   0  0  0  0  0  0  0  0  0  0  0  0
    8.2966   -5.6685   -1.3758 H   0  0  0  0  0  0  0  0  0  0  0  0
    9.9895   -6.1352   -1.0037 H   0  0  0  0  0  0  0  0  0  0  0  0
    8.6377   -7.1581   -0.4073 H   0  0  0  0  0  0  0  0  0  0  0  0
    8.5441   -3.3409   -0.1871 H   0  0  0  0  0  0  0  0  0  0  0  0
   12.2295   -2.3706    0.8772 H   0  0  0  0  0  0  0  0  0  0  0  0
   11.9725   -5.4324    0.9595 H   0  0  0  0  0  0  0  0  0  0  0  0
   13.4748   -4.4380    0.9962 H   0  0  0  0  0  0  0  0  0  0  0  0
   12.3246   -4.3629    2.3793 H   0  0  0  0  0  0  0  0  0  0  0  0
   11.6994   -4.4308   -1.2444 H   0  0  0  0  0  0  0  0  0  0  0  0
   11.4149   -0.7503   -0.4028 H   0  0  0  0  0  0  0  0  0  0  0  0
   13.8140   -1.3861   -0.9738 H   0  0  0  0  0  0  0  0  0  0  0  0
   13.4748    0.3545   -1.2274 H   0  0  0  0  0  0  0  0  0  0  0  0
   13.5452   -0.7535   -2.6437 H   0  0  0  0  0  0  0  0  0  0  0  0
   10.3202   -0.4121   -3.0541 H   0  0  0  0  0  0  0  0  0  0  0  0
    9.8312    1.6393   -0.6149 H   0  0  0  0  0  0  0  0  0  0  0  0
   12.1142    1.5744    0.3233 H   0  0  0  0  0  0  0  0  0  0  0  0
   11.3728    3.1669    0.6783 H   0  0  0  0  0  0  0  0  0  0  0  0
   12.5925    3.0313   -0.6437 H   0  0  0  0  0  0  0  0  0  0  0  0
   10.5491    3.9592   -2.4376 H   0  0  0  0  0  0  0  0  0  0  0  0
    8.8482    3.1666    0.7957 H   0  0  0  0  0  0  0  0  0  0  0  0
    8.7140    6.2506    0.5990 H   0  0  0  0  0  0  0  0  0  0  0  0
    9.1423    5.2435    2.0448 H   0  0  0  0  0  0  0  0  0  0  0  0
   10.2574    5.3249    0.6601 H   0  0  0  0  0  0  0  0  0  0  0  0
    6.4452    3.6962   -0.3101 H   0  0  0  0  0  0  0  0  0  0  0  0
   -1.5419   -2.4056    0.2968 H   0  0  0  0  0  0  0  0  0  0  0  0
   -1.9280   -4.7519    0.8756 H   0  0  0  0  0  0  0  0  0  0  0  0
   -1.4026   -6.6105   -0.6493 H   0  0  0  0  0  0  0  0  0  0  0  0
    0.0773   -5.6517   -0.3520 H   0  0  0  0  0  0  0  0  0  0  0  0
   -0.8130   -5.4688   -1.9123 H   0  0  0  0  0  0  0  0  0  0  0  0
   -4.6685   -5.6690   -1.6656 H   0  0  0  0  0  0  0  0  0  0  0  0
   -3.6491   -6.0465    1.1928 H   0  0  0  0  0  0  0  0  0  0  0  0
   -5.0005   -8.0667   -0.7054 H   0  0  0  0  0  0  0  0  0  0  0  0
   -4.4678   -8.3809    0.9966 H   0  0  0  0  0  0  0  0  0  0  0  0
   -3.2465   -8.0394   -0.2812 H   0  0  0  0  0  0  0  0  0  0  0  0
   -6.3650   -4.3916   -0.4132 H   0  0  0  0  0  0  0  0  0  0  0  0
   -8.6347   -5.3640    0.8535 H   0  0  0  0  0  0  0  0  0  0  0  0
   -7.9747   -7.7026    0.7242 H   0  0  0  0  0  0  0  0  0  0  0  0
   -9.2648   -7.4767   -0.5028 H   0  0  0  0  0  0  0  0  0  0  0  0
   -7.5430   -7.5625   -1.0232 H   0  0  0  0  0  0  0  0  0  0  0  0
  -10.0930   -3.6668   -2.1454 H   0  0  0  0  0  0  0  0  0  0  0  0
  -10.2796   -3.8397    0.7798 H   0  0  0  0  0  0  0  0  0  0  0  0
  -12.4158   -5.2566    0.7860 H   0  0  0  0  0  0  0  0  0  0  0  0
  -10.8857   -6.1474    0.5508 H   0  0  0  0  0  0  0  0  0  0  0  0
  -11.9503   -5.8078   -0.8690 H   0  0  0  0  0  0  0  0  0  0  0  0
  -12.9508   -1.3220    0.2050 H   0  0  0  0  0  0  0  0  0  0  0  0
  -10.1982   -1.8321    1.4078 H   0  0  0  0  0  0  0  0  0  0  0  0
  -11.2451   -1.5939    3.6623 H   0  0  0  0  0  0  0  0  0  0  0  0
  -11.9667   -2.9824    2.7611 H   0  0  0  0  0  0  0  0  0  0  0  0
  -12.8781   -1.4236    2.8910 H   0  0  0  0  0  0  0  0  0  0  0  0
  -12.6753    0.8661    0.4068 H   0  0  0  0  0  0  0  0  0  0  0  0
  -11.6146    2.2871   -1.0660 H   0  0  0  0  0  0  0  0  0  0  0  0
   -9.4230    1.6162   -1.9504 H   0  0  0  0  0  0  0  0  0  0  0  0
  -10.4376    0.1645   -1.6614 H   0  0  0  0  0  0  0  0  0  0  0  0
   -9.1089    0.5744   -0.5077 H   0  0  0  0  0  0  0  0  0  0  0  0
   -8.1699    3.4549    0.3714 H   0  0  0  0  0  0  0  0  0  0  0  0
   -9.2905    5.6723   -0.3333 H   0  0  0  0  0  0  0  0  0  0  0  0
  -11.2806    4.7402   -1.4116 H   0  0  0  0  0  0  0  0  0  0  0  0
  -10.2576    3.8581   -2.6181 H   0  0  0  0  0  0  0  0  0  0  0  0
  -10.3246    5.6628   -2.6163 H   0  0  0  0  0  0  0  0  0  0  0  0
   -6.5143    6.2278   -2.8204 H   0  0  0  0  0  0  0  0  0  0  0  0
   -8.7044    7.7053   -1.6692 H   0  0  0  0  0  0  0  0  0  0  0  0
   -5.7367    8.5328   -1.8829 H   0  0  0  0  0  0  0  0  0  0  0  0
   -7.1580    9.6204   -1.6401 H   0  0  0  0  0  0  0  0  0  0  0  0
   -6.9967    8.6952   -3.1728 H   0  0  0  0  0  0  0  0  0  0  0  0
   -6.0047    7.6945    1.5965 H   0  0  0  0  0  0  0  0  0  0  0  0
   -5.4608    5.7502   -0.6700 H   0  0  0  0  0  0  0  0  0  0  0  0
   -2.4879    8.5916    0.3730 H   0  0  0  0  0  0  0  0  0  0  0  0
   -3.8133    8.3639    1.5628 H   0  0  0  0  0  0  0  0  0  0  0  0
   -5.9397    4.8444    1.6016 H   0  0  0  0  0  0  0  0  0  0  0  0
   -4.4992    5.6732    2.2461 H   0  0  0  0  0  0  0  0  0  0  0  0
   -2.2917    5.4219    1.4606 H   0  0  0  0  0  0  0  0  0  0  0  0
   -2.2862    3.9308    2.4488 H   0  0  0  0  0  0  0  0  0  0  0  0
  1  2  1  0
  2  3  2  0
  2  4  1  0
  4  5  1  0
  5  6  1  0
  6  7  1  0
  7  8  1  0
  8  9  1  0
  9 10  1  0
 10 11  2  0
 11 12  1  0
 12 13  2  0
 13 14  1  0
 13 15  1  0
 15 16  1  0
 16 17  1  0
 17 18  1  0
 18 19  1  0
 19 20  1  0
 20 21  2  0
 20 22  1  0
 22 23  1  0
 22 24  1  0
 24 25  1  0
 25 26  2  0
 25 27  1  0
 27 28  1  0
 27 29  1  0
 29 30  1  0
 30 31  2  0
 30 32  1  0
 32 33  1  0
 32 34  1  0
 34 35  1  0
 35 36  2  0
 35 37  1  0
 37 38  1  0
 37 39  1  0
 39 40  1  0
 40 41  2  0
 40 42  1  0
 42 43  1  0
 42 44  1  0
 44 45  1  0
 45 46  2  0
 45 47  1  0
 47 48  1  0
 47 49  1  0
 49 50  1  0
 50 51  2  0
 50 52  1  0
 52 53  1  0
 52 54  1  0
 54 55  1  0
 55 56  2  0
 18 57  1  0
 57 58  2  0
 57 59  1  0
 59 60  1  0
 60 61  1  0
 60 62  1  0
 62 63  2  0
 62 64  1  0
 64 65  1  0
 65 66  1  0
 65 67  1  0
 67 68  2  0
 67 69  1  0
 69 70  1  0
 70 71  1  0
 70 72  1  0
 72 73  2  0
 72 74  1  0
 74 75  1  0
 75 76  1  0
 75 77  1  0
 77 78  2  0
 77 79  1  0
 79 80  1  0
 80 81  1  0
 80 82  1  0
 82 83  2  0
 82 84  1  0
 84 85  1  0
 85 86  1  0
 85 87  1  0
 87 88  2  0
 87 89  1  0
 89 90  1  0
 90 91  1  0
 90 92  1  0
 92 93  2  0
 92 94  1  0
 94 95  1  0
 95 96  1  0
 95 97  1  0
 97 98  2  0
 97 99  1  0
 99100  1  0
100101  1  0
101102  1  0
101103  2  0
100104  1  0
104105  1  0
105106  1  0
 55  5  1  0
 14  9  2  0
106 11  1  0
  1107  1  0
  1108  1  0
  1109  1  0
  4110  1  0
  5111  1  1
  6112  1  0
  6113  1  0
  8114  1  0
  8115  1  0
 10116  1  0
 12117  1  0
 14118  1  0
 15119  1  0
 15120  1  0
 17121  1  0
 17122  1  0
 18123  1  6
 19124  1  0
 22125  1  1
 23126  1  0
 23127  1  0
 23128  1  0
 24129  1  0
 27130  1  6
 28131  1  0
 28132  1  0
 28133  1  0
 29134  1  0
 32135  1  1
 33136  1  0
 33137  1  0
 33138  1  0
 34139  1  0
 37140  1  6
 38141  1  0
 38142  1  0
 38143  1  0
 39144  1  0
 42145  1  1
 43146  1  0
 43147  1  0
 43148  1  0
 44149  1  0
 47150  1  1
 48151  1  0
 48152  1  0
 48153  1  0
 49154  1  0
 52155  1  1
 53156  1  0
 53157  1  0
 53158  1  0
 54159  1  0
 59160  1  0
 60161  1  1
 61162  1  0
 61163  1  0
 61164  1  0
 64165  1  0
 65166  1  1
 66167  1  0
 66168  1  0
 66169  1  0
 69170  1  0
 70171  1  1
 71172  1  0
 71173  1  0
 71174  1  0
 74175  1  0
 75176  1  1
 76177  1  0
 76178  1  0
 76179  1  0
 79180  1  0
 80181  1  6
 81182  1  0
 81183  1  0
 81184  1  0
 84185  1  0
 85186  1  6
 86187  1  0
 86188  1  0
 86189  1  0
 89190  1  0
 90191  1  1
 91192  1  0
 91193  1  0
 91194  1  0
 94195  1  0
 95196  1  1
 96197  1  0
 96198  1  0
 96199  1  0
 99200  1  0
100201  1  6
102202  1  0
102203  1  0
104204  1  0
104205  1  0
106206  1  0
106207  1  0
M  END
