
     RDKit          3D

207209  0  0  0  0  0  0  0  0999 V2000
   -3.7893    8.8534   -1.6225 C   0  0  0  0  0  0  0  0  0  0  0  0
   -4.7518    8.0198   -0.8323 C   0  0  0  0  0  0  0  0  0  0  0  0
   -5.5918    8.5938   -0.0878 O   0  0  0  0  0  0  0  0  0  0  0  0
   -4.7151    6.5871   -0.9193 N   0  0  0  0  0  0  0  0  0  0  0  0
   -5.5481    5.7172   -0.0793 C   0  0  2  0  0  0  0  0  0  0  0  0
   -4.7410    4.5033    0.4056 C   0  0  0  0  0  0  0  0  0  0  0  0
   -3.2949    5.0278    1.4015 S   0  0  0  0  0  0  0  0  0  0  0  0
   -2.0192    4.8963    0.0953 C   0  0  0  0  0  0  0  0  0  0  0  0
   -0.9385    3.9545    0.5445 C   0  0  0  0  0  0  0  0  0  0  0  0
    0.3549    4.4281    0.8069 C   0  0  0  0  0  0  0  0  0  0  0  0
    1.3661    3.5463    1.2180 C   0  0  0  0  0  0  0  0  0  0  0  0
    1.0818    2.1745    1.3437 C   0  0  0  0  0  0  0  0  0  0  0  0
   -0.2133    1.6916    1.0994 C   0  0  0  0  0  0  0  0  0  0  0  0
   -1.2212    2.5916    0.7130 C   0  0  0  0  0  0  0  0  0  0  0  0
   -0.5441    0.2338    1.3072 C   0  0  0  0  0  0  0  0  0  0  0  0
   -1.2610   -0.4751   -0.2186 S   0  0  0  0  0  0  0  0  0  0  0  0
   -2.0180   -1.9495    0.5588 C   0  0  0  0  0  0  0  0  0  0  0  0
   -1.0292   -3.1300    0.6399 C   0  0  1  0  0  0  0  0  0  0  0  0
   -1.6687   -4.2472    1.3553 N   0  0  0  0  0  0  0  0  0  0  0  0
   -1.7469   -5.5839    0.8495 C   0  0  0  0  0  0  0  0  0  0  0  0
   -0.7607   -6.3583    0.9837 O   0  0  0  0  0  0  0  0  0  0  0  0
   -3.0350   -6.0844    0.2537 C   0  0  1  0  0  0  0  0  0  0  0  0
   -2.7564   -6.8375   -1.0526 C   0  0  0  0  0  0  0  0  0  0  0  0
   -3.7234   -6.9573    1.2113 N   0  0  0  0  0  0  0  0  0  0  0  0
   -5.0997   -7.3733    1.1283 C   0  0  0  0  0  0  0  0  0  0  0  0
   -5.5176   -8.2331    1.9541 O   0  0  0  0  0  0  0  0  0  0  0  0
   -6.0732   -6.8306    0.1049 C   0  0  1  0  0  0  0  0  0  0  0  0
   -6.4936   -7.9637   -0.8441 C   0  0  0  0  0  0  0  0  0  0  0  0
   -7.2068   -6.2133    0.8135 N   0  0  0  0  0  0  0  0  0  0  0  0
   -8.5945   -6.4215    0.5162 C   0  0  0  0  0  0  0  0  0  0  0  0
   -9.3332   -6.9255    1.4055 O   0  0  0  0  0  0  0  0  0  0  0  0
   -9.1913   -6.0322   -0.8183 C   0  0  1  0  0  0  0  0  0  0  0  0
  -10.6786   -5.6653   -0.7158 C   0  0  0  0  0  0  0  0  0  0  0  0
   -8.4233   -4.9621   -1.4749 N   0  0  0  0  0  0  0  0  0  0  0  0
   -7.9944   -3.7380   -0.8528 C   0  0  0  0  0  0  0  0  0  0  0  0
   -6.7772   -3.4200   -0.9263 O   0  0  0  0  0  0  0  0  0  0  0  0
   -8.9565   -2.8090   -0.1479 C   0  0  1  0  0  0  0  0  0  0  0  0
   -8.9004   -3.0225    1.3691 C   0  0  0  0  0  0  0  0  0  0  0  0
   -8.6164   -1.4141   -0.4456 N   0  0  0  0  0  0  0  0  0  0  0  0
   -9.3242   -0.6424   -1.4271 C   0  0  0  0  0  0  0  0  0  0  0  0
   -8.6877   -0.2099   -2.4253 O   0  0  0  0  0  0  0  0  0  0  0  0
  -10.8000   -0.3046   -1.2951 C   0  0  1  0  0  0  0  0  0  0  0  0
  -11.3333   -0.4620    0.1471 C   0  0  0  0  0  0  0  0  0  0  0  0
  -11.0294    1.0491   -1.8326 N   0  0  0  0  0  0  0  0  0  0  0  0
  -11.7199    2.1051   -1.1480 C   0  0  0  0  0  0  0  0  0  0  0  0
  -12.9322    2.3146   -1.4275 O   0  0  0  0  0  0  0  0  0  0  0  0
  -11.0128    3.0551   -0.1969 C   0  0  1  0  0  0  0  0  0  0  0  0
  -11.7869    3.1443    1.1258 C   0  0  0  0  0  0  0  0  0  0  0  0
   -9.6186    2.6619    0.0575 N   0  0  0  0  0  0  0  0  0  0  0  0
   -8.6499    3.4874    0.7272 C   0  0  0  0  0  0  0  0  0  0  0  0
   -7.6576    2.9222    1.2610 O   0  0  0  0  0  0  0  0  0  0  0  0
   -8.7427    5.0015    0.7453 C   0  0  1  0  0  0  0  0  0  0  0  0
   -8.2019    5.5984    2.0481 C   0  0  0  0  0  0  0  0  0  0  0  0
   -8.0939    5.5778   -0.4407 N   0  0  0  0  0  0  0  0  0  0  0  0
   -6.7555    5.2688   -0.8625 C   0  0  0  0  0  0  0  0  0  0  0  0
   -6.5856    4.6808   -1.9672 O   0  0  0  0  0  0  0  0  0  0  0  0
   -0.5548   -3.5415   -0.7438 C   0  0  0  0  0  0  0  0  0  0  0  0
   -1.3840   -3.5879   -1.6940 O   0  0  0  0  0  0  0  0  0  0  0  0
    0.8168   -3.8570   -1.0137 N   0  0  0  0  0  0  0  0  0  0  0  0
    1.7388   -4.4339   -0.0287 C   0  0  2  0  0  0  0  0  0  0  0  0
    2.8710   -3.4422    0.2336 C   0  0  0  0  0  0  0  0  0  0  0  0
    2.2853   -5.7506   -0.5311 C   0  0  0  0  0  0  0  0  0  0  0  0
    1.7611   -6.3107   -1.5353 O   0  0  0  0  0  0  0  0  0  0  0  0
    3.3555   -6.4028    0.1638 N   0  0  0  0  0  0  0  0  0  0  0  0
    4.6639   -6.6069   -0.4754 C   0  0  2  0  0  0  0  0  0  0  0  0
    4.5405   -7.4192   -1.7691 C   0  0  0  0  0  0  0  0  0  0  0  0
    5.6321   -7.3061    0.4578 C   0  0  0  0  0  0  0  0  0  0  0  0
    5.1828   -8.0024    1.4134 O   0  0  0  0  0  0  0  0  0  0  0  0
    7.0517   -7.3053    0.2206 N   0  0  0  0  0  0  0  0  0  0  0  0
    7.8079   -6.1377   -0.2499 C   0  0  2  0  0  0  0  0  0  0  0  0
    8.9462   -6.5933   -1.1664 C   0  0  0  0  0  0  0  0  0  0  0  0
    8.3568   -5.3564    0.9224 C   0  0  0  0  0  0  0  0  0  0  0  0
    8.3242   -5.8518    2.0839 O   0  0  0  0  0  0  0  0  0  0  0  0
    8.8787   -4.0331    0.7131 N   0  0  0  0  0  0  0  0  0  0  0  0
    9.3562   -3.1934    1.8192 C   0  0  2  0  0  0  0  0  0  0  0  0
    8.2619   -2.2189    2.2666 C   0  0  0  0  0  0  0  0  0  0  0  0
   10.6433   -2.4941    1.4446 C   0  0  0  0  0  0  0  0  0  0  0  0
   11.7359   -3.0322    1.7792 O   0  0  0  0  0  0  0  0  0  0  0  0
   10.6811   -1.1995    0.8237 N   0  0  0  0  0  0  0  0  0  0  0  0
   10.0083   -0.8895   -0.4383 C   0  0  2  0  0  0  0  0  0  0  0  0
   10.8664   -1.3887   -1.6082 C   0  0  0  0  0  0  0  0  0  0  0  0
    9.7079    0.5934   -0.4828 C   0  0  0  0  0  0  0  0  0  0  0  0
    8.7558    1.0254    0.2147 O   0  0  0  0  0  0  0  0  0  0  0  0
   10.5230    1.5218   -1.2245 N   0  0  0  0  0  0  0  0  0  0  0  0
   10.5230    2.9669   -0.9563 C   0  0  2  0  0  0  0  0  0  0  0  0
   11.4836    3.6641   -1.9326 C   0  0  0  0  0  0  0  0  0  0  0  0
   10.9545    3.2189    0.4735 C   0  0  0  0  0  0  0  0  0  0  0  0
   12.0627    2.7451    0.8461 O   0  0  0  0  0  0  0  0  0  0  0  0
   10.1724    3.9611    1.4393 N   0  0  0  0  0  0  0  0  0  0  0  0
    8.9543    4.7675    1.2271 C   0  0  2  0  0  0  0  0  0  0  0  0
    7.7257    3.8859    0.9780 C   0  0  0  0  0  0  0  0  0  0  0  0
    9.1613    5.8635    0.2078 C   0  0  0  0  0  0  0  0  0  0  0  0
   10.3299    6.1661   -0.1527 O   0  0  0  0  0  0  0  0  0  0  0  0
    8.0880    6.7320   -0.1743 N   0  0  0  0  0  0  0  0  0  0  0  0
    7.1085    6.3903   -1.2177 C   0  0  2  0  0  0  0  0  0  0  0  0
    7.8121    5.9934   -2.5230 C   0  0  0  0  0  0  0  0  0  0  0  0
    6.1885    7.5696   -1.4557 C   0  0  0  0  0  0  0  0  0  0  0  0
    6.6451    8.5863   -2.0526 O   0  0  0  0  0  0  0  0  0  0  0  0
    4.8305    7.6023   -0.9903 N   0  0  0  0  0  0  0  0  0  0  0  0
    4.2751    6.6892    0.0185 C   0  0  1  0  0  0  0  0  0  0  0  0
    3.3721    7.4697    0.9402 C   0  0  0  0  0  0  0  0  0  0  0  0
    3.6596    7.5577    2.3386 N   0  0  0  0  0  0  0  0  0  0  0  0
    2.3532    8.0551    0.4827 O   0  0  0  0  0  0  0  0  0  0  0  0
    3.5249    5.5294   -0.6754 C   0  0  0  0  0  0  0  0  0  0  0  0
    3.8626    3.9047    0.1089 S   0  0  0  0  0  0  0  0  0  0  0  0
    2.7374    4.0669    1.5374 C   0  0  0  0  0  0  0  0  0  0  0  0
   -3.1054    8.2118   -2.2171 H   0  0  0  0  0  0  0  0  0  0  0  0
   -4.3497    9.5220   -2.3067 H   0  0  0  0  0  0  0  0  0  0  0  0
   -3.1800    9.4670   -0.9259 H   0  0  0  0  0  0  0  0  0  0  0  0
   -4.1429    6.1468   -1.6758 H   0  0  0  0  0  0  0  0  0  0  0  0
   -5.8725    6.2843    0.8183 H   0  0  0  0  0  0  0  0  0  0  0  0
   -4.4518    3.8462   -0.4438 H   0  0  0  0  0  0  0  0  0  0  0  0
   -5.3749    3.8887    1.0692 H   0  0  0  0  0  0  0  0  0  0  0  0
   -1.6163    5.9122   -0.0920 H   0  0  0  0  0  0  0  0  0  0  0  0
   -2.4234    4.5429   -0.8754 H   0  0  0  0  0  0  0  0  0  0  0  0
    0.5719    5.4811    0.7020 H   0  0  0  0  0  0  0  0  0  0  0  0
    1.8633    1.4904    1.6513 H   0  0  0  0  0  0  0  0  0  0  0  0
   -2.2262    2.2267    0.5292 H   0  0  0  0  0  0  0  0  0  0  0  0
    0.3674   -0.3452    1.5711 H   0  0  0  0  0  0  0  0  0  0  0  0
   -1.2544    0.1648    2.1629 H   0  0  0  0  0  0  0  0  0  0  0  0
   -2.9006   -2.2446   -0.0512 H   0  0  0  0  0  0  0  0  0  0  0  0
   -2.4043   -1.7062    1.5707 H   0  0  0  0  0  0  0  0  0  0  0  0
   -0.1604   -2.7949    1.2433 H   0  0  0  0  0  0  0  0  0  0  0  0
   -2.1667   -4.0492    2.2514 H   0  0  0  0  0  0  0  0  0  0  0  0
   -3.6601   -5.1914    0.0371 H   0  0  0  0  0  0  0  0  0  0  0  0
   -2.1161   -6.2266   -1.7239 H   0  0  0  0  0  0  0  0  0  0  0  0
   -2.2436   -7.8016   -0.8490 H   0  0  0  0  0  0  0  0  0  0  0  0
   -3.7019   -7.0467   -1.5904 H   0  0  0  0  0  0  0  0  0  0  0  0
   -3.1799   -7.3195    2.0328 H   0  0  0  0  0  0  0  0  0  0  0  0
   -5.5998   -6.0403   -0.5095 H   0  0  0  0  0  0  0  0  0  0  0  0
   -7.1775   -8.6740   -0.3308 H   0  0  0  0  0  0  0  0  0  0  0  0
   -5.6021   -8.5293   -1.1943 H   0  0  0  0  0  0  0  0  0  0  0  0
   -6.9839   -7.5517   -1.7449 H   0  0  0  0  0  0  0  0  0  0  0  0
   -6.9948   -5.6386    1.6594 H   0  0  0  0  0  0  0  0  0  0  0  0
   -9.1500   -6.9331   -1.4699 H   0  0  0  0  0  0  0  0  0  0  0  0
  -10.8723   -4.9737    0.1247 H   0  0  0  0  0  0  0  0  0  0  0  0
  -11.2818   -6.5836   -0.5468 H   0  0  0  0  0  0  0  0  0  0  0  0
  -11.0235   -5.1998   -1.6637 H   0  0  0  0  0  0  0  0  0  0  0  0
   -7.9290   -5.2265   -2.3563 H   0  0  0  0  0  0  0  0  0  0  0  0
   -9.9799   -3.0157   -0.5173 H   0  0  0  0  0  0  0  0  0  0  0  0
   -9.2563   -4.0349    1.6366 H   0  0  0  0  0  0  0  0  0  0  0  0
   -9.5546   -2.2854    1.8839 H   0  0  0  0  0  0  0  0  0  0  0  0
   -7.8635   -2.8937    1.7450 H   0  0  0  0  0  0  0  0  0  0  0  0
   -7.6694   -1.0669   -0.1672 H   0  0  0  0  0  0  0  0  0  0  0  0
  -11.3615   -1.0247   -1.9288 H   0  0  0  0  0  0  0  0  0  0  0  0
  -11.3887   -1.5311    0.4331 H   0  0  0  0  0  0  0  0  0  0  0  0
  -10.6903    0.0667    0.8770 H   0  0  0  0  0  0  0  0  0  0  0  0
  -12.3700   -0.0732    0.2229 H   0  0  0  0  0  0  0  0  0  0  0  0
  -10.8847    1.1872   -2.8582 H   0  0  0  0  0  0  0  0  0  0  0  0
  -11.0237    4.0481   -0.6948 H   0  0  0  0  0  0  0  0  0  0  0  0
  -12.7940    3.5715    0.9534 H   0  0  0  0  0  0  0  0  0  0  0  0
  -11.2602    3.8070    1.8435 H   0  0  0  0  0  0  0  0  0  0  0  0
  -11.8859    2.1401    1.5896 H   0  0  0  0  0  0  0  0  0  0  0  0
   -9.3406    1.6686   -0.0588 H   0  0  0  0  0  0  0  0  0  0  0  0
   -9.8125    5.3005    0.7153 H   0  0  0  0  0  0  0  0  0  0  0  0
   -8.8748    5.3171    2.8881 H   0  0  0  0  0  0  0  0  0  0  0  0
   -8.1724    6.7045    1.9793 H   0  0  0  0  0  0  0  0  0  0  0  0
   -7.1889    5.2178    2.2878 H   0  0  0  0  0  0  0  0  0  0  0  0
   -8.7353    5.9278   -1.1859 H   0  0  0  0  0  0  0  0  0  0  0  0
    1.1542   -3.7529   -1.9972 H   0  0  0  0  0  0  0  0  0  0  0  0
    1.2185   -4.6310    0.9329 H   0  0  0  0  0  0  0  0  0  0  0  0
    2.4485   -2.4720    0.5735 H   0  0  0  0  0  0  0  0  0  0  0  0
    3.5435   -3.8177    1.0322 H   0  0  0  0  0  0  0  0  0  0  0  0
    3.4607   -3.2745   -0.6938 H   0  0  0  0  0  0  0  0  0  0  0  0
    3.3145   -6.3600    1.2075 H   0  0  0  0  0  0  0  0  0  0  0  0
    5.0514   -5.6020   -0.7243 H   0  0  0  0  0  0  0  0  0  0  0  0
    5.5449   -7.6874   -2.1650 H   0  0  0  0  0  0  0  0  0  0  0  0
    3.9640   -8.3543   -1.5875 H   0  0  0  0  0  0  0  0  0  0  0  0
    4.0226   -6.8223   -2.5524 H   0  0  0  0  0  0  0  0  0  0  0  0
    7.6007   -8.0791    0.6647 H   0  0  0  0  0  0  0  0  0  0  0  0
    7.1633   -5.4612   -0.8453 H   0  0  0  0  0  0  0  0  0  0  0  0
    8.5356   -7.1982   -2.0030 H   0  0  0  0  0  0  0  0  0  0  0  0
    9.6816   -7.2014   -0.5985 H   0  0  0  0  0  0  0  0  0  0  0  0
    9.4656   -5.7104   -1.5980 H   0  0  0  0  0  0  0  0  0  0  0  0
    8.7290   -3.6004   -0.2206 H   0  0  0  0  0  0  0  0  0  0  0  0
    9.5906   -3.8349    2.6973 H   0  0  0  0  0  0  0  0  0  0  0  0
    7.8871   -1.6067    1.4215 H   0  0  0  0  0  0  0  0  0  0  0  0
    7.4040   -2.7893    2.6846 H   0  0  0  0  0  0  0  0  0  0  0  0
    8.6468   -1.5422    3.0613 H   0  0  0  0  0  0  0  0  0  0  0  0
   11.4916   -0.5891    1.0811 H   0  0  0  0  0  0  0  0  0  0  0  0
    9.0377   -1.4194   -0.5069 H   0  0  0  0  0  0  0  0  0  0  0  0
   10.9355   -2.4993   -1.5726 H   0  0  0  0  0  0  0  0  0  0  0  0
   11.8989   -0.9801   -1.5457 H   0  0  0  0  0  0  0  0  0  0  0  0
   10.4088   -1.1029   -2.5809 H   0  0  0  0  0  0  0  0  0  0  0  0
   11.1743    1.1535   -1.9559 H   0  0  0  0  0  0  0  0  0  0  0  0
    9.5143    3.3687   -1.1503 H   0  0  0  0  0  0  0  0  0  0  0  0
   11.1354    3.5089   -2.9769 H   0  0  0  0  0  0  0  0  0  0  0  0
   12.5071    3.2429   -1.8396 H   0  0  0  0  0  0  0  0  0  0  0  0
   11.5316    4.7520   -1.7462 H   0  0  0  0  0  0  0  0  0  0  0  0
   10.5537    3.9731    2.4125 H   0  0  0  0  0  0  0  0  0  0  0  0
    8.7460    5.2961    2.1849 H   0  0  0  0  0  0  0  0  0  0  0  0
    7.7421    3.0108    1.6624 H   0  0  0  0  0  0  0  0  0  0  0  0
    6.8031    4.4605    1.2067 H   0  0  0  0  0  0  0  0  0  0  0  0
    7.6578    3.5307   -0.0664 H   0  0  0  0  0  0  0  0  0  0  0  0
    8.1773    7.7299    0.1181 H   0  0  0  0  0  0  0  0  0  0  0  0
    6.5160    5.5127   -0.8944 H   0  0  0  0  0  0  0  0  0  0  0  0
    8.3872    5.0585   -2.3817 H   0  0  0  0  0  0  0  0  0  0  0  0
    8.5142    6.7904   -2.8537 H   0  0  0  0  0  0  0  0  0  0  0  0
    7.0640    5.8129   -3.3229 H   0  0  0  0  0  0  0  0  0  0  0  0
    4.1970    8.3146   -1.4158 H   0  0  0  0  0  0  0  0  0  0  0  0
    5.1055    6.2870    0.6332 H   0  0  0  0  0  0  0  0  0  0  0  0
    3.0113    8.0760    2.9745 H   0  0  0  0  0  0  0  0  0  0  0  0
    4.4620    7.0334    2.7508 H   0  0  0  0  0  0  0  0  0  0  0  0
    2.4328    5.7183   -0.7420 H   0  0  0  0  0  0  0  0  0  0  0  0
    3.8854    5.4356   -1.7230 H   0  0  0  0  0  0  0  0  0  0  0  0
    3.1686    3.4811    2.3731 H   0  0  0  0  0  0  0  0  0  0  0  0
    2.6782    5.1106    1.8944 H   0  0  0  0  0  0  0  0  0  0  0  0
  1  2  1  0
  2  3  2  0
  2  4  1  0
  4  5  1  0
  5  6  1  0
  6  7  1  0
  7  8  1  0
  8  9  1  0
  9 10  1  0
 10 11  2  0
 11 12  1  0
 12 13  2  0
 13 14  1  0
 13 15  1  0
 15 16  1  0
 16 17  1  0
 17 18  1  0
 18 19  1  0
 19 20  1  0
 20 21  2  0
 20 22  1  0
 22 23  1  0
 22 24  1  0
 24 25  1  0
 25 26  2  0
 25 27  1  0
 27 28  1  0
 27 29  1  0
 29 30  1  0
 30 31  2  0
 30 32  1  0
 32 33  1  0
 32 34  1  0
 34 35  1  0
 35 36  2  0
 35 37  1  0
 37 38  1  0
 37 39  1  0
 39 40  1  0
 40 41  2  0
 40 42  1  0
 42 43  1  0
 42 44  1  0
 44 45  1  0
 45 46  2  0
 45 47  1  0
 47 48  1  0
 47 49  1  0
 49 50  1  0
 50 51  2  0
 50 52  1  0
 52 53  1  0
 52 54  1  0
 54 55  1  0
 55 56  2  0
 18 57  1  0
 57 58  2  0
 57 59  1  0
 59 60  1  0
 60 61  1  0
 60 62  1  0
 62 63  2  0
 62 64  1  0
 64 65  1  0
 65 66  1  0
 65 67  1  0
 67 68  2  0
 67 69  1  0
 69 70  1  0
 70 71  1  0
 70 72  1  0
 72 73  2  0
 72 74  1  0
 74 75  1  0
 75 76  1  0
 75 77  1  0
 77 78  2  0
 77 79  1  0
 79 80  1  0
 80 81  1  0
 80 82  1  0
 82 83  2  0
 82 84  1  0
 84 85  1  0
 85 86  1  0
 85 87  1  0
 87 88  2  0
 87 89  1  0
 89 90  1  0
 90 91  1  0
 90 92  1  0
 92 93  2  0
 92 94  1  0
 94 95  1  0
 95 96  1  0
 95 97  1  0
 97 98  2  0
 97 99  1  0
 99100  1  0
100101  1  0
101102  1  0
101103  2  0
100104  1  0
104105  1  0
105106  1  0
 55  5  1  0
 14  9  2  0
106 11  1  0
  1107  1  0
  1108  1  0
  1109  1  0
  4110  1  0
  5111  1  1
  6112  1  0
  6113  1  0
  8114  1  0
  8115  1  0
 10116  1  0
 12117  1  0
 14118  1  0
 15119  1  0
 15120  1  0
 17121  1  0
 17122  1  0
 18123  1  1
 19124  1  0
 22125  1  6
 23126  1  0
 23127  1  0
 23128  1  0
 24129  1  0
 27130  1  6
 28131  1  0
 28132  1  0
 28133  1  0
 29134  1  0
 32135  1  6
 33136  1  0
 33137  1  0
 33138  1  0
 34139  1  0
 37140  1  6
 38141  1  0
 38142  1  0
 38143  1  0
 39144  1  0
 42145  1  6
 43146  1  0
 43147  1  0
 43148  1  0
 44149  1  0
 47150  1  6
 48151  1  0
 48152  1  0
 48153  1  0
 49154  1  0
 52155  1  6
 53156  1  0
 53157  1  0
 53158  1  0
 54159  1  0
 59160  1  0
 60161  1  1
 61162  1  0
 61163  1  0
 61164  1  0
 64165  1  0
 65166  1  6
 66167  1  0
 66168  1  0
 66169  1  0
 69170  1  0
 70171  1  6
 71172  1  0
 71173  1  0
 71174  1  0
 74175  1  0
 75176  1  1
 76177  1  0
 76178  1  0
 76179  1  0
 79180  1  0
 80181  1  1
 81182  1  0
 81183  1  0
 81184  1  0
 84185  1  0
 85186  1  1
 86187  1  0
 86188  1  0
 86189  1  0
 89190  1  0
 90191  1  1
 91192  1  0
 91193  1  0
 91194  1  0
 94195  1  0
 95196  1  1
 96197  1  0
 96198  1  0
 96199  1  0
 99200  1  0
100201  1  1
102202  1  0
102203  1  0
104204  1  0
104205  1  0
106206  1  0
106207  1  0
M  END
