
     RDKit          3D

217219  0  0  0  0  0  0  0  0999 V2000
   -5.8346   -7.9961    1.3494 C   0  0  0  0  0  0  0  0  0  0  0  0
   -5.7534   -7.2362    0.0587 C   0  0  0  0  0  0  0  0  0  0  0  0
   -5.4954   -7.8885   -0.9892 O   0  0  0  0  0  0  0  0  0  0  0  0
   -6.0192   -5.8242   -0.0512 N   0  0  0  0  0  0  0  0  0  0  0  0
   -6.3408   -4.9351    1.0861 C   0  0  1  0  0  0  0  0  0  0  0  0
   -5.0813   -4.6744    1.9560 C   0  0  0  0  0  0  0  0  0  0  0  0
   -3.9291   -3.3586    1.3599 S   0  0  0  0  0  0  0  0  0  0  0  0
   -3.4596   -4.1343   -0.2265 C   0  0  0  0  0  0  0  0  0  0  0  0
   -2.2146   -3.5111   -0.7920 C   0  0  0  0  0  0  0  0  0  0  0  0
   -2.1701   -2.1279   -1.0588 C   0  0  0  0  0  0  0  0  0  0  0  0
   -1.0489   -1.5575   -1.6773 C   0  0  0  0  0  0  0  0  0  0  0  0
    0.0172   -2.3805   -2.0581 C   0  0  0  0  0  0  0  0  0  0  0  0
   -0.0008   -3.7492   -1.7768 C   0  0  0  0  0  0  0  0  0  0  0  0
   -1.1187   -4.3126   -1.1416 C   0  0  0  0  0  0  0  0  0  0  0  0
    1.1433   -4.6152   -2.2274 C   0  0  0  0  0  0  0  0  0  0  0  0
    2.7168   -4.1038   -1.4358 S   0  0  0  0  0  0  0  0  0  0  0  0
    2.5436   -5.0760    0.1112 C   0  0  0  0  0  0  0  0  0  0  0  0
    3.8947   -5.7172    0.4665 C   0  0  1  0  0  0  0  0  0  0  0  0
    3.8076   -6.3925    1.8111 C   0  0  0  0  0  0  0  0  0  0  0  0
    3.0440   -7.5860    1.9834 N   0  0  0  0  0  0  0  0  0  0  0  0
    4.4220   -5.9046    2.8001 O   0  0  0  0  0  0  0  0  0  0  0  0
    4.2998   -6.6954   -0.5608 N   0  0  0  0  0  0  0  0  0  0  0  0
    5.6434   -7.1768   -0.7707 C   0  0  0  0  0  0  0  0  0  0  0  0
    5.8687   -7.9118   -1.7685 O   0  0  0  0  0  0  0  0  0  0  0  0
    6.7615   -6.9218    0.2200 C   0  0  1  0  0  0  0  0  0  0  0  0
    6.8381   -8.0872    1.2046 C   0  0  0  0  0  0  0  0  0  0  0  0
    8.0517   -6.7546   -0.4622 N   0  0  0  0  0  0  0  0  0  0  0  0
    9.1992   -6.1950    0.2039 C   0  0  0  0  0  0  0  0  0  0  0  0
    9.0858   -5.7856    1.3876 O   0  0  0  0  0  0  0  0  0  0  0  0
   10.5245   -6.1033   -0.5300 C   0  0  1  0  0  0  0  0  0  0  0  0
   10.4496   -5.0418   -1.6337 C   0  0  0  0  0  0  0  0  0  0  0  0
   11.6901   -5.8730    0.3276 N   0  0  0  0  0  0  0  0  0  0  0  0
   11.8111   -4.8420    1.3281 C   0  0  0  0  0  0  0  0  0  0  0  0
   11.3083   -5.0333    2.4662 O   0  0  0  0  0  0  0  0  0  0  0  0
   12.6623   -3.6144    1.1256 C   0  0  1  0  0  0  0  0  0  0  0  0
   13.2458   -3.4903   -0.2995 C   0  0  0  0  0  0  0  0  0  0  0  0
   11.8789   -2.4347    1.5216 N   0  0  0  0  0  0  0  0  0  0  0  0
   11.7524   -1.2384    0.7439 C   0  0  0  0  0  0  0  0  0  0  0  0
   12.7942   -0.5968    0.4334 O   0  0  0  0  0  0  0  0  0  0  0  0
   10.4078   -0.7412    0.2676 C   0  0  1  0  0  0  0  0  0  0  0  0
    9.2323   -1.4951    0.9011 C   0  0  0  0  0  0  0  0  0  0  0  0
   10.2884    0.6903    0.5453 N   0  0  0  0  0  0  0  0  0  0  0  0
    9.9855    1.6186   -0.4935 C   0  0  0  0  0  0  0  0  0  0  0  0
    8.9957    1.4113   -1.2474 O   0  0  0  0  0  0  0  0  0  0  0  0
   10.8522    2.8420   -0.6654 C   0  0  1  0  0  0  0  0  0  0  0  0
   12.1674    2.4500   -1.3322 C   0  0  0  0  0  0  0  0  0  0  0  0
   10.1813    3.8583   -1.4880 N   0  0  0  0  0  0  0  0  0  0  0  0
   10.1272    5.2566   -1.1666 C   0  0  0  0  0  0  0  0  0  0  0  0
    9.9660    6.0881   -2.1039 O   0  0  0  0  0  0  0  0  0  0  0  0
   10.2764    5.7632    0.2423 C   0  0  1  0  0  0  0  0  0  0  0  0
   11.7572    6.0486    0.5253 C   0  0  0  0  0  0  0  0  0  0  0  0
    9.4835    6.9835    0.4486 N   0  0  0  0  0  0  0  0  0  0  0  0
    8.0895    6.9545    0.7707 C   0  0  0  0  0  0  0  0  0  0  0  0
    7.6445    7.7685    1.6315 O   0  0  0  0  0  0  0  0  0  0  0  0
    7.1109    6.0414    0.0570 C   0  0  1  0  0  0  0  0  0  0  0  0
    6.6629    4.9169    1.0013 C   0  0  0  0  0  0  0  0  0  0  0  0
    5.9765    6.8433   -0.4172 N   0  0  0  0  0  0  0  0  0  0  0  0
    4.6723    6.3080   -0.6669 C   0  0  0  0  0  0  0  0  0  0  0  0
    4.5364    5.3370   -1.4621 O   0  0  0  0  0  0  0  0  0  0  0  0
    3.4531    6.8809    0.0247 C   0  0  1  0  0  0  0  0  0  0  0  0
    3.7714    8.1695    0.7923 C   0  0  0  0  0  0  0  0  0  0  0  0
    2.3931    7.1492   -0.9474 N   0  0  0  0  0  0  0  0  0  0  0  0
    1.0232    6.8950   -0.6129 C   0  0  0  0  0  0  0  0  0  0  0  0
    0.4002    7.7289    0.1028 O   0  0  0  0  0  0  0  0  0  0  0  0
    0.3400    5.6426   -1.0746 C   0  0  1  0  0  0  0  0  0  0  0  0
    0.0013    5.7240   -2.5649 C   0  0  0  0  0  0  0  0  0  0  0  0
    1.1985    4.4829   -0.8193 N   0  0  0  0  0  0  0  0  0  0  0  0
    0.8854    3.4696    0.1441 C   0  0  0  0  0  0  0  0  0  0  0  0
    1.8084    3.0203    0.8814 O   0  0  0  0  0  0  0  0  0  0  0  0
   -0.5097    2.8990    0.2512 C   0  0  1  0  0  0  0  0  0  0  0  0
   -0.4707    1.3649    0.3737 C   0  0  0  0  0  0  0  0  0  0  0  0
    0.4410    0.6325   -1.0416 S   0  0  0  0  0  0  0  0  0  0  0  0
   -0.9750   -0.0786   -1.9495 C   0  0  0  0  0  0  0  0  0  0  0  0
   -1.1668    3.4680    1.4356 N   0  0  0  0  0  0  0  0  0  0  0  0
   -2.4988    4.0108    1.4999 C   0  0  0  0  0  0  0  0  0  0  0  0
   -3.0538    4.0772    2.6295 O   0  0  0  0  0  0  0  0  0  0  0  0
   -3.2770    4.4588    0.2734 C   0  0  1  0  0  0  0  0  0  0  0  0
   -4.4148    3.4768   -0.0047 C   0  0  0  0  0  0  0  0  0  0  0  0
   -3.7854    5.8338    0.4138 N   0  0  0  0  0  0  0  0  0  0  0  0
   -4.6142    6.2914    1.4950 C   0  0  0  0  0  0  0  0  0  0  0  0
   -4.0828    6.6121    2.5915 O   0  0  0  0  0  0  0  0  0  0  0  0
   -6.1145    6.3759    1.3604 C   0  0  1  0  0  0  0  0  0  0  0  0
   -6.5383    6.6390   -0.0983 C   0  0  0  0  0  0  0  0  0  0  0  0
   -6.7057    5.1552    1.9118 N   0  0  0  0  0  0  0  0  0  0  0  0
   -8.0352    4.7515    1.6053 C   0  0  0  0  0  0  0  0  0  0  0  0
   -8.9939    5.2170    2.2823 O   0  0  0  0  0  0  0  0  0  0  0  0
   -8.2757    3.7036    0.5551 C   0  0  1  0  0  0  0  0  0  0  0  0
   -8.1677    2.2951    1.1503 C   0  0  0  0  0  0  0  0  0  0  0  0
   -9.5581    3.9036   -0.1288 N   0  0  0  0  0  0  0  0  0  0  0  0
  -10.8316    3.5243    0.4231 C   0  0  0  0  0  0  0  0  0  0  0  0
  -11.0235    3.5947    1.6681 O   0  0  0  0  0  0  0  0  0  0  0  0
  -11.9206    2.9467   -0.4364 C   0  0  1  0  0  0  0  0  0  0  0  0
  -11.8560    3.4333   -1.8846 C   0  0  0  0  0  0  0  0  0  0  0  0
  -11.8406    1.4831   -0.3957 N   0  0  0  0  0  0  0  0  0  0  0  0
  -12.3487    0.7572    0.7303 C   0  0  0  0  0  0  0  0  0  0  0  0
  -11.5987    0.5580    1.7244 O   0  0  0  0  0  0  0  0  0  0  0  0
  -13.7422    0.1910    0.7121 C   0  0  1  0  0  0  0  0  0  0  0  0
  -14.7706    1.2955    0.9530 C   0  0  0  0  0  0  0  0  0  0  0  0
  -14.0061   -0.4947   -0.5682 N   0  0  0  0  0  0  0  0  0  0  0  0
  -13.2201   -1.5870   -1.0747 C   0  0  0  0  0  0  0  0  0  0  0  0
  -13.3101   -1.8775   -2.2945 O   0  0  0  0  0  0  0  0  0  0  0  0
  -12.2936   -2.4018   -0.1994 C   0  0  1  0  0  0  0  0  0  0  0  0
  -12.7903   -3.8523   -0.1276 C   0  0  0  0  0  0  0  0  0  0  0  0
  -10.9174   -2.2862   -0.7173 N   0  0  0  0  0  0  0  0  0  0  0  0
  -10.1788   -3.3713   -1.2818 C   0  0  0  0  0  0  0  0  0  0  0  0
  -10.2098   -3.5633   -2.5293 O   0  0  0  0  0  0  0  0  0  0  0  0
   -9.2732   -4.1922   -0.4014 C   0  0  1  0  0  0  0  0  0  0  0  0
   -9.3692   -5.6821   -0.7535 C   0  0  0  0  0  0  0  0  0  0  0  0
   -7.9013   -3.7192   -0.5308 N   0  0  0  0  0  0  0  0  0  0  0  0
   -7.0212   -3.6737    0.5947 C   0  0  0  0  0  0  0  0  0  0  0  0
   -6.8759   -2.5888    1.2149 O   0  0  0  0  0  0  0  0  0  0  0  0
   -4.8373   -8.4168    1.5862 H   0  0  0  0  0  0  0  0  0  0  0  0
   -6.5564   -8.8404    1.2392 H   0  0  0  0  0  0  0  0  0  0  0  0
   -6.1605   -7.3794    2.2046 H   0  0  0  0  0  0  0  0  0  0  0  0
   -6.0370   -5.4361   -1.0190 H   0  0  0  0  0  0  0  0  0  0  0  0
   -7.1041   -5.4376    1.7036 H   0  0  0  0  0  0  0  0  0  0  0  0
   -5.4224   -4.3578    2.9603 H   0  0  0  0  0  0  0  0  0  0  0  0
   -4.5025   -5.6113    2.1022 H   0  0  0  0  0  0  0  0  0  0  0  0
   -4.2789   -3.9718   -0.9590 H   0  0  0  0  0  0  0  0  0  0  0  0
   -3.3279   -5.2270   -0.1004 H   0  0  0  0  0  0  0  0  0  0  0  0
   -3.0070   -1.4996   -0.7759 H   0  0  0  0  0  0  0  0  0  0  0  0
    0.8585   -1.9450   -2.5784 H   0  0  0  0  0  0  0  0  0  0  0  0
   -1.1444   -5.3720   -0.9526 H   0  0  0  0  0  0  0  0  0  0  0  0
    0.9481   -5.6922   -2.0468 H   0  0  0  0  0  0  0  0  0  0  0  0
    1.2668   -4.5115   -3.3294 H   0  0  0  0  0  0  0  0  0  0  0  0
    1.7555   -5.8577    0.0179 H   0  0  0  0  0  0  0  0  0  0  0  0
    2.2367   -4.3768    0.9200 H   0  0  0  0  0  0  0  0  0  0  0  0
    4.6426   -4.8965    0.5199 H   0  0  0  0  0  0  0  0  0  0  0  0
    2.5327   -8.0189    1.1785 H   0  0  0  0  0  0  0  0  0  0  0  0
    3.0562   -8.0894    2.9016 H   0  0  0  0  0  0  0  0  0  0  0  0
    3.5700   -7.0383   -1.2247 H   0  0  0  0  0  0  0  0  0  0  0  0
    6.5571   -5.9881    0.7797 H   0  0  0  0  0  0  0  0  0  0  0  0
    5.8466   -8.2762    1.6624 H   0  0  0  0  0  0  0  0  0  0  0  0
    7.5460   -7.8578    2.0194 H   0  0  0  0  0  0  0  0  0  0  0  0
    7.1664   -9.0115    0.6888 H   0  0  0  0  0  0  0  0  0  0  0  0
    8.1405   -6.9630   -1.4817 H   0  0  0  0  0  0  0  0  0  0  0  0
   10.6649   -7.0896   -1.0390 H   0  0  0  0  0  0  0  0  0  0  0  0
    9.6822   -5.3168   -2.3869 H   0  0  0  0  0  0  0  0  0  0  0  0
   11.4249   -4.9664   -2.1567 H   0  0  0  0  0  0  0  0  0  0  0  0
   10.1785   -4.0534   -1.2043 H   0  0  0  0  0  0  0  0  0  0  0  0
   12.5583   -6.4136    0.1037 H   0  0  0  0  0  0  0  0  0  0  0  0
   13.5274   -3.7066    1.8218 H   0  0  0  0  0  0  0  0  0  0  0  0
   13.7049   -4.4444   -0.6284 H   0  0  0  0  0  0  0  0  0  0  0  0
   12.4690   -3.1738   -1.0181 H   0  0  0  0  0  0  0  0  0  0  0  0
   14.0593   -2.7282   -0.3046 H   0  0  0  0  0  0  0  0  0  0  0  0
   11.4463   -2.4291    2.4804 H   0  0  0  0  0  0  0  0  0  0  0  0
   10.3798   -0.9095   -0.8351 H   0  0  0  0  0  0  0  0  0  0  0  0
    9.2858   -2.5706    0.6215 H   0  0  0  0  0  0  0  0  0  0  0  0
    9.2532   -1.3892    2.0121 H   0  0  0  0  0  0  0  0  0  0  0  0
    8.2713   -1.0942    0.5211 H   0  0  0  0  0  0  0  0  0  0  0  0
   10.6401    1.0555    1.4653 H   0  0  0  0  0  0  0  0  0  0  0  0
   11.0869    3.2294    0.3420 H   0  0  0  0  0  0  0  0  0  0  0  0
   12.7413    1.7569   -0.6779 H   0  0  0  0  0  0  0  0  0  0  0  0
   12.7874    3.3559   -1.5009 H   0  0  0  0  0  0  0  0  0  0  0  0
   11.9836    1.9549   -2.3162 H   0  0  0  0  0  0  0  0  0  0  0  0
    9.9207    3.5852   -2.4593 H   0  0  0  0  0  0  0  0  0  0  0  0
    9.9187    5.0044    0.9707 H   0  0  0  0  0  0  0  0  0  0  0  0
   12.1477    6.8142   -0.1790 H   0  0  0  0  0  0  0  0  0  0  0  0
   12.3652    5.1288    0.4109 H   0  0  0  0  0  0  0  0  0  0  0  0
   11.8803    6.4252    1.5669 H   0  0  0  0  0  0  0  0  0  0  0  0
    9.9860    7.8825    0.6422 H   0  0  0  0  0  0  0  0  0  0  0  0
    7.5917    5.5777   -0.8262 H   0  0  0  0  0  0  0  0  0  0  0  0
    6.0980    4.1491    0.4313 H   0  0  0  0  0  0  0  0  0  0  0  0
    6.0108    5.3175    1.8033 H   0  0  0  0  0  0  0  0  0  0  0  0
    7.5390    4.4100    1.4570 H   0  0  0  0  0  0  0  0  0  0  0  0
    6.1468    7.8450   -0.6671 H   0  0  0  0  0  0  0  0  0  0  0  0
    3.1115    6.1201    0.7647 H   0  0  0  0  0  0  0  0  0  0  0  0
    4.5295    7.9792    1.5833 H   0  0  0  0  0  0  0  0  0  0  0  0
    2.8530    8.5568    1.2804 H   0  0  0  0  0  0  0  0  0  0  0  0
    4.1594    8.9509    0.1066 H   0  0  0  0  0  0  0  0  0  0  0  0
    2.6004    7.7588   -1.7660 H   0  0  0  0  0  0  0  0  0  0  0  0
   -0.6125    5.5495   -0.5079 H   0  0  0  0  0  0  0  0  0  0  0  0
    0.9339    5.7728   -3.1708 H   0  0  0  0  0  0  0  0  0  0  0  0
   -0.5782    4.8241   -2.8609 H   0  0  0  0  0  0  0  0  0  0  0  0
   -0.6121    6.6252   -2.7679 H   0  0  0  0  0  0  0  0  0  0  0  0
    2.1463    4.4562   -1.2515 H   0  0  0  0  0  0  0  0  0  0  0  0
   -1.0584    3.1294   -0.6732 H   0  0  0  0  0  0  0  0  0  0  0  0
   -1.5062    0.9618    0.4413 H   0  0  0  0  0  0  0  0  0  0  0  0
    0.0507    1.0727    1.3130 H   0  0  0  0  0  0  0  0  0  0  0  0
   -1.9299    0.4390   -1.7058 H   0  0  0  0  0  0  0  0  0  0  0  0
   -0.7963    0.0670   -3.0305 H   0  0  0  0  0  0  0  0  0  0  0  0
   -0.6797    3.3265    2.3538 H   0  0  0  0  0  0  0  0  0  0  0  0
   -2.6375    4.4585   -0.6193 H   0  0  0  0  0  0  0  0  0  0  0  0
   -5.1143    3.4323    0.8543 H   0  0  0  0  0  0  0  0  0  0  0  0
   -3.9954    2.4600   -0.1629 H   0  0  0  0  0  0  0  0  0  0  0  0
   -4.9631    3.7826   -0.9177 H   0  0  0  0  0  0  0  0  0  0  0  0
   -3.6621    6.4813   -0.3910 H   0  0  0  0  0  0  0  0  0  0  0  0
   -6.4704    7.2435    1.9586 H   0  0  0  0  0  0  0  0  0  0  0  0
   -7.6371    6.7995   -0.1567 H   0  0  0  0  0  0  0  0  0  0  0  0
   -6.2736    5.7881   -0.7593 H   0  0  0  0  0  0  0  0  0  0  0  0
   -6.0430    7.5581   -0.4827 H   0  0  0  0  0  0  0  0  0  0  0  0
   -6.3646    4.8578    2.8494 H   0  0  0  0  0  0  0  0  0  0  0  0
   -7.4715    3.7948   -0.2058 H   0  0  0  0  0  0  0  0  0  0  0  0
   -7.1281    2.1138    1.5032 H   0  0  0  0  0  0  0  0  0  0  0  0
   -8.4106    1.5401    0.3676 H   0  0  0  0  0  0  0  0  0  0  0  0
   -8.8578    2.1692    2.0092 H   0  0  0  0  0  0  0  0  0  0  0  0
   -9.5718    4.5733   -0.9372 H   0  0  0  0  0  0  0  0  0  0  0  0
  -12.8947    3.2805   -0.0184 H   0  0  0  0  0  0  0  0  0  0  0  0
  -11.9172    4.5434   -1.9243 H   0  0  0  0  0  0  0  0  0  0  0  0
  -12.7160    3.0146   -2.4440 H   0  0  0  0  0  0  0  0  0  0  0  0
  -10.9159    3.0925   -2.3769 H   0  0  0  0  0  0  0  0  0  0  0  0
  -11.0392    1.0466   -0.9054 H   0  0  0  0  0  0  0  0  0  0  0  0
  -13.8523   -0.5377    1.5394 H   0  0  0  0  0  0  0  0  0  0  0  0
  -15.7776    0.8529    1.0925 H   0  0  0  0  0  0  0  0  0  0  0  0
  -14.8109    1.9953    0.0896 H   0  0  0  0  0  0  0  0  0  0  0  0
  -14.5107    1.8667    1.8773 H   0  0  0  0  0  0  0  0  0  0  0  0
  -14.7645   -0.1281   -1.1821 H   0  0  0  0  0  0  0  0  0  0  0  0
  -12.2866   -2.0180    0.8396 H   0  0  0  0  0  0  0  0  0  0  0  0
  -12.7999   -4.3299   -1.1273 H   0  0  0  0  0  0  0  0  0  0  0  0
  -13.8219   -3.8747    0.2855 H   0  0  0  0  0  0  0  0  0  0  0  0
  -12.1435   -4.4431    0.5553 H   0  0  0  0  0  0  0  0  0  0  0  0
  -10.5064   -1.3344   -0.7975 H   0  0  0  0  0  0  0  0  0  0  0  0
   -9.6017   -4.0679    0.6601 H   0  0  0  0  0  0  0  0  0  0  0  0
   -9.0182   -5.8669   -1.7907 H   0  0  0  0  0  0  0  0  0  0  0  0
   -8.7524   -6.2776   -0.0509 H   0  0  0  0  0  0  0  0  0  0  0  0
  -10.4181   -6.0214   -0.6558 H   0  0  0  0  0  0  0  0  0  0  0  0
   -7.5381   -3.3804   -1.4511 H   0  0  0  0  0  0  0  0  0  0  0  0
  1  2  1  0
  2  3  2  0
  2  4  1  0
  4  5  1  0
  5  6  1  0
  6  7  1  0
  7  8  1  0
  8  9  1  0
  9 10  1  0
 10 11  2  0
 11 12  1  0
 12 13  2  0
 13 14  1  0
 13 15  1  0
 15 16  1  0
 16 17  1  0
 17 18  1  0
 18 19  1  0
 19 20  1  0
 19 21  2  0
 18 22  1  0
 22 23  1  0
 23 24  2  0
 23 25  1  0
 25 26  1  0
 25 27  1  0
 27 28  1  0
 28 29  2  0
 28 30  1  0
 30 31  1  0
 30 32  1  0
 32 33  1  0
 33 34  2  0
 33 35  1  0
 35 36  1  0
 35 37  1  0
 37 38  1  0
 38 39  2  0
 38 40  1  0
 40 41  1  0
 40 42  1  0
 42 43  1  0
 43 44  2  0
 43 45  1  0
 45 46  1  0
 45 47  1  0
 47 48  1  0
 48 49  2  0
 48 50  1  0
 50 51  1  0
 50 52  1  0
 52 53  1  0
 53 54  2  0
 53 55  1  0
 55 56  1  0
 55 57  1  0
 57 58  1  0
 58 59  2  0
 58 60  1  0
 60 61  1  0
 60 62  1  0
 62 63  1  0
 63 64  2  0
 63 65  1  0
 65 66  1  0
 65 67  1  0
 67 68  1  0
 68 69  2  0
 68 70  1  0
 70 71  1  0
 71 72  1  0
 72 73  1  0
 70 74  1  0
 74 75  1  0
 75 76  2  0
 75 77  1  0
 77 78  1  0
 77 79  1  0
 79 80  1  0
 80 81  2  0
 80 82  1  0
 82 83  1  0
 82 84  1  0
 84 85  1  0
 85 86  2  0
 85 87  1  0
 87 88  1  0
 87 89  1  0
 89 90  1  0
 90 91  2  0
 90 92  1  0
 92 93  1  0
 92 94  1  0
 94 95  1  0
 95 96  2  0
 95 97  1  0
 97 98  1  0
 97 99  1  0
 99100  1  0
100101  2  0
100102  1  0
102103  1  0
102104  1  0
104105  1  0
105106  2  0
105107  1  0
107108  1  0
107109  1  0
109110  1  0
110111  2  0
110  5  1  0
 14  9  2  0
 73 11  1  0
  1112  1  0
  1113  1  0
  1114  1  0
  4115  1  0
  5116  1  1
  6117  1  0
  6118  1  0
  8119  1  0
  8120  1  0
 10121  1  0
 12122  1  0
 14123  1  0
 15124  1  0
 15125  1  0
 17126  1  0
 17127  1  0
 18128  1  1
 20129  1  0
 20130  1  0
 22131  1  0
 25132  1  1
 26133  1  0
 26134  1  0
 26135  1  0
 27136  1  0
 30137  1  6
 31138  1  0
 31139  1  0
 31140  1  0
 32141  1  0
 35142  1  1
 36143  1  0
 36144  1  0
 36145  1  0
 37146  1  0
 40147  1  6
 41148  1  0
 41149  1  0
 41150  1  0
 42151  1  0
 45152  1  1
 46153  1  0
 46154  1  0
 46155  1  0
 47156  1  0
 50157  1  1
 51158  1  0
 51159  1  0
 51160  1  0
 52161  1  0
 55162  1  6
 56163  1  0
 56164  1  0
 56165  1  0
 57166  1  0
 60167  1  1
 61168  1  0
 61169  1  0
 61170  1  0
 62171  1  0
 65172  1  1
 66173  1  0
 66174  1  0
 66175  1  0
 67176  1  0
 70177  1  6
 71178  1  0
 71179  1  0
 73180  1  0
 73181  1  0
 74182  1  0
 77183  1  6
 78184  1  0
 78185  1  0
 78186  1  0
 79187  1  0
 82188  1  1
 83189  1  0
 83190  1  0
 83191  1  0
 84192  1  0
 87193  1  6
 88194  1  0
 88195  1  0
 88196  1  0
 89197  1  0
 92198  1  1
 93199  1  0
 93200  1  0
 93201  1  0
 94202  1  0
 97203  1  1
 98204  1  0
 98205  1  0
 98206  1  0
 99207  1  0
102208  1  1
103209  1  0
103210  1  0
103211  1  0
104212  1  0
107213  1  1
108214  1  0
108215  1  0
108216  1  0
109217  1  0
M  END
