
     RDKit          3D

157159  0  0  0  0  0  0  0  0999 V2000
    3.6331    8.7685    0.5421 C   0  0  0  0  0  0  0  0  0  0  0  0
    2.9971    7.4376    0.2877 C   0  0  0  0  0  0  0  0  0  0  0  0
    2.8951    7.0263   -0.8927 O   0  0  0  0  0  0  0  0  0  0  0  0
    2.4662    6.6758    1.3879 N   0  0  0  0  0  0  0  0  0  0  0  0
    1.9682    5.2932    1.3158 C   0  0  1  0  0  0  0  0  0  0  0  0
    1.0318    5.0220    0.1189 C   0  0  0  0  0  0  0  0  0  0  0  0
   -0.2505    6.3210   -0.0365 S   0  0  0  0  0  0  0  0  0  0  0  0
   -1.0431    5.6381   -1.5359 C   0  0  0  0  0  0  0  0  0  0  0  0
   -2.0108    4.5393   -1.1831 C   0  0  0  0  0  0  0  0  0  0  0  0
   -3.1834    4.8381   -0.4676 C   0  0  0  0  0  0  0  0  0  0  0  0
   -4.0533    3.8164   -0.0578 C   0  0  0  0  0  0  0  0  0  0  0  0
   -3.7530    2.4873   -0.3978 C   0  0  0  0  0  0  0  0  0  0  0  0
   -2.5901    2.1696   -1.1076 C   0  0  0  0  0  0  0  0  0  0  0  0
   -1.7125    3.1986   -1.4862 C   0  0  0  0  0  0  0  0  0  0  0  0
   -2.2283    0.7268   -1.3266 C   0  0  0  0  0  0  0  0  0  0  0  0
   -1.4689    0.1278    0.2104 S   0  0  0  0  0  0  0  0  0  0  0  0
   -1.1898   -1.6000   -0.3228 C   0  0  0  0  0  0  0  0  0  0  0  0
   -0.9963   -2.4677    0.9322 C   0  0  2  0  0  0  0  0  0  0  0  0
   -0.4214   -3.7808    0.6276 N   0  0  0  0  0  0  0  0  0  0  0  0
   -1.1344   -4.8451   -0.0114 C   0  0  0  0  0  0  0  0  0  0  0  0
   -1.7265   -4.6293   -1.1028 O   0  0  0  0  0  0  0  0  0  0  0  0
   -1.1602   -6.2188    0.6233 C   0  0  1  0  0  0  0  0  0  0  0  0
   -1.9598   -7.2366   -0.2044 C   0  0  0  0  0  0  0  0  0  0  0  0
    0.2119   -6.6656    0.9293 N   0  0  0  0  0  0  0  0  0  0  0  0
    0.9855   -7.6056    0.1627 C   0  0  0  0  0  0  0  0  0  0  0  0
    0.4822   -8.7178   -0.1626 O   0  0  0  0  0  0  0  0  0  0  0  0
    2.4571   -7.3626   -0.0672 C   0  0  1  0  0  0  0  0  0  0  0  0
    2.9573   -8.1137   -1.3075 C   0  0  0  0  0  0  0  0  0  0  0  0
    2.7164   -5.9283   -0.2252 N   0  0  0  0  0  0  0  0  0  0  0  0
    3.5638   -5.1937    0.6674 C   0  0  0  0  0  0  0  0  0  0  0  0
    3.0398   -4.4135    1.5065 O   0  0  0  0  0  0  0  0  0  0  0  0
    5.0679   -5.2877    0.5869 C   0  0  1  0  0  0  0  0  0  0  0  0
    5.5728   -6.6207    1.1541 C   0  0  0  0  0  0  0  0  0  0  0  0
    5.5036   -5.1326   -0.8098 N   0  0  0  0  0  0  0  0  0  0  0  0
    6.6978   -4.4377   -1.2208 C   0  0  0  0  0  0  0  0  0  0  0  0
    7.3054   -4.8597   -2.2467 O   0  0  0  0  0  0  0  0  0  0  0  0
    7.2540   -3.2459   -0.4597 C   0  0  1  0  0  0  0  0  0  0  0  0
    8.2774   -3.7466    0.5703 C   0  0  0  0  0  0  0  0  0  0  0  0
    7.8722   -2.2827   -1.3930 N   0  0  0  0  0  0  0  0  0  0  0  0
    8.3541   -0.9616   -1.0682 C   0  0  0  0  0  0  0  0  0  0  0  0
    8.8582   -0.2671   -1.9951 O   0  0  0  0  0  0  0  0  0  0  0  0
    8.3710   -0.3943    0.3334 C   0  0  1  0  0  0  0  0  0  0  0  0
    9.7728   -0.6241    0.9307 C   0  0  0  0  0  0  0  0  0  0  0  0
    8.0243    1.0397    0.2874 N   0  0  0  0  0  0  0  0  0  0  0  0
    8.5555    2.0231    1.1883 C   0  0  0  0  0  0  0  0  0  0  0  0
    8.7215    1.7400    2.4028 O   0  0  0  0  0  0  0  0  0  0  0  0
    8.9179    3.4080    0.6968 C   0  0  1  0  0  0  0  0  0  0  0  0
    9.7356    3.3111   -0.5974 C   0  0  0  0  0  0  0  0  0  0  0  0
    7.7562    4.2895    0.4806 N   0  0  0  0  0  0  0  0  0  0  0  0
    6.3763    3.9860    0.7742 C   0  0  0  0  0  0  0  0  0  0  0  0
    6.0839    3.1328    1.6555 O   0  0  0  0  0  0  0  0  0  0  0  0
    5.2748    4.8041    0.1379 C   0  0  1  0  0  0  0  0  0  0  0  0
    5.5680    5.0793   -1.3393 C   0  0  0  0  0  0  0  0  0  0  0  0
    3.9833    4.1108    0.2472 N   0  0  0  0  0  0  0  0  0  0  0  0
    3.1133    4.3128    1.3696 C   0  0  0  0  0  0  0  0  0  0  0  0
    3.2813    3.6212    2.4094 O   0  0  0  0  0  0  0  0  0  0  0  0
   -2.2605   -2.5881    1.7577 C   0  0  0  0  0  0  0  0  0  0  0  0
   -2.1989   -2.3888    2.9987 O   0  0  0  0  0  0  0  0  0  0  0  0
   -3.5301   -2.8539    1.1401 N   0  0  0  0  0  0  0  0  0  0  0  0
   -4.7864   -2.3748    1.7248 C   0  0  2  0  0  0  0  0  0  0  0  0
   -5.3585   -3.4642    2.6377 C   0  0  0  0  0  0  0  0  0  0  0  0
   -5.7255   -1.8961    0.6318 C   0  0  0  0  0  0  0  0  0  0  0  0
   -5.2753   -1.0854   -0.2245 O   0  0  0  0  0  0  0  0  0  0  0  0
   -7.1085   -2.2868    0.5705 N   0  0  0  0  0  0  0  0  0  0  0  0
   -8.1295   -1.3708    0.0371 C   0  0  2  0  0  0  0  0  0  0  0  0
   -9.5302   -1.8644    0.4274 C   0  0  0  0  0  0  0  0  0  0  0  0
   -8.0233   -1.2649   -1.4679 C   0  0  0  0  0  0  0  0  0  0  0  0
   -7.7523   -2.2993   -2.1436 O   0  0  0  0  0  0  0  0  0  0  0  0
   -8.2168   -0.0178   -2.1620 N   0  0  0  0  0  0  0  0  0  0  0  0
   -9.2189    0.9810   -1.7696 C   0  0  2  0  0  0  0  0  0  0  0  0
  -10.5659    0.6591   -2.4255 C   0  0  0  0  0  0  0  0  0  0  0  0
   -8.7724    2.3643   -2.1851 C   0  0  0  0  0  0  0  0  0  0  0  0
   -8.4621    2.5641   -3.3912 O   0  0  0  0  0  0  0  0  0  0  0  0
   -8.7162    3.4713   -1.2742 N   0  0  0  0  0  0  0  0  0  0  0  0
   -8.5087    3.3398    0.1759 C   0  0  2  0  0  0  0  0  0  0  0  0
   -9.8046    3.0041    0.8679 C   0  0  0  0  0  0  0  0  0  0  0  0
  -10.9948    3.7441    0.5890 N   0  0  0  0  0  0  0  0  0  0  0  0
   -9.8320    2.0767    1.7168 O   0  0  0  0  0  0  0  0  0  0  0  0
   -7.9323    4.6414    0.7785 C   0  0  0  0  0  0  0  0  0  0  0  0
   -6.4117    5.1964   -0.0789 S   0  0  0  0  0  0  0  0  0  0  0  0
   -5.2381    4.1288    0.8140 C   0  0  0  0  0  0  0  0  0  0  0  0
    4.6531    8.7792    0.1040 H   0  0  0  0  0  0  0  0  0  0  0  0
    3.7245    8.9698    1.6309 H   0  0  0  0  0  0  0  0  0  0  0  0
    3.0297    9.5687    0.0758 H   0  0  0  0  0  0  0  0  0  0  0  0
    2.3899    7.1498    2.3138 H   0  0  0  0  0  0  0  0  0  0  0  0
    1.3495    5.1250    2.2243 H   0  0  0  0  0  0  0  0  0  0  0  0
    1.6020    4.9312   -0.8272 H   0  0  0  0  0  0  0  0  0  0  0  0
    0.5234    4.0489    0.2847 H   0  0  0  0  0  0  0  0  0  0  0  0
   -1.5917    6.4578   -2.0398 H   0  0  0  0  0  0  0  0  0  0  0  0
   -0.2668    5.2854   -2.2521 H   0  0  0  0  0  0  0  0  0  0  0  0
   -3.3952    5.8731   -0.2024 H   0  0  0  0  0  0  0  0  0  0  0  0
   -4.4088    1.6922   -0.0486 H   0  0  0  0  0  0  0  0  0  0  0  0
   -0.7764    2.9555   -1.9784 H   0  0  0  0  0  0  0  0  0  0  0  0
   -3.1394    0.1424   -1.5762 H   0  0  0  0  0  0  0  0  0  0  0  0
   -1.5144    0.6166   -2.1663 H   0  0  0  0  0  0  0  0  0  0  0  0
   -2.0357   -1.9654   -0.9403 H   0  0  0  0  0  0  0  0  0  0  0  0
   -0.2664   -1.6282   -0.9428 H   0  0  0  0  0  0  0  0  0  0  0  0
   -0.2441   -1.9384    1.5661 H   0  0  0  0  0  0  0  0  0  0  0  0
    0.4962   -3.9989    1.0753 H   0  0  0  0  0  0  0  0  0  0  0  0
   -1.6916   -6.1104    1.5913 H   0  0  0  0  0  0  0  0  0  0  0  0
   -3.0016   -6.8760   -0.3341 H   0  0  0  0  0  0  0  0  0  0  0  0
   -1.5049   -7.3863   -1.2044 H   0  0  0  0  0  0  0  0  0  0  0  0
   -2.0090   -8.2100    0.3353 H   0  0  0  0  0  0  0  0  0  0  0  0
    0.7148   -6.1750    1.7055 H   0  0  0  0  0  0  0  0  0  0  0  0
    2.9984   -7.7479    0.8205 H   0  0  0  0  0  0  0  0  0  0  0  0
    2.9368   -9.2063   -1.1190 H   0  0  0  0  0  0  0  0  0  0  0  0
    4.0029   -7.8297   -1.5328 H   0  0  0  0  0  0  0  0  0  0  0  0
    2.3247   -7.8794   -2.1898 H   0  0  0  0  0  0  0  0  0  0  0  0
    2.1275   -5.3850   -0.8976 H   0  0  0  0  0  0  0  0  0  0  0  0
    5.4989   -4.4815    1.2183 H   0  0  0  0  0  0  0  0  0  0  0  0
    6.6770   -6.6190    1.2116 H   0  0  0  0  0  0  0  0  0  0  0  0
    5.1708   -6.7736    2.1765 H   0  0  0  0  0  0  0  0  0  0  0  0
    5.2737   -7.4694    0.5092 H   0  0  0  0  0  0  0  0  0  0  0  0
    5.0912   -5.7878   -1.5056 H   0  0  0  0  0  0  0  0  0  0  0  0
    6.4089   -2.7431    0.0558 H   0  0  0  0  0  0  0  0  0  0  0  0
    9.2880   -3.8244    0.1192 H   0  0  0  0  0  0  0  0  0  0  0  0
    8.0019   -4.7444    0.9687 H   0  0  0  0  0  0  0  0  0  0  0  0
    8.3115   -3.0674    1.4432 H   0  0  0  0  0  0  0  0  0  0  0  0
    7.9385   -2.5345   -2.4035 H   0  0  0  0  0  0  0  0  0  0  0  0
    7.6181   -0.9040    0.9611 H   0  0  0  0  0  0  0  0  0  0  0  0
   10.5044    0.0901    0.5057 H   0  0  0  0  0  0  0  0  0  0  0  0
    9.7485   -0.5001    2.0355 H   0  0  0  0  0  0  0  0  0  0  0  0
   10.1445   -1.6475    0.7269 H   0  0  0  0  0  0  0  0  0  0  0  0
    7.4689    1.3949   -0.5222 H   0  0  0  0  0  0  0  0  0  0  0  0
    9.5779    3.8845    1.4557 H   0  0  0  0  0  0  0  0  0  0  0  0
   10.1385    4.3129   -0.8649 H   0  0  0  0  0  0  0  0  0  0  0  0
    9.1071    2.9546   -1.4414 H   0  0  0  0  0  0  0  0  0  0  0  0
   10.5948    2.6188   -0.4683 H   0  0  0  0  0  0  0  0  0  0  0  0
    7.9680    5.2380    0.1018 H   0  0  0  0  0  0  0  0  0  0  0  0
    5.2203    5.7762    0.6780 H   0  0  0  0  0  0  0  0  0  0  0  0
    5.9201    4.1564   -1.8481 H   0  0  0  0  0  0  0  0  0  0  0  0
    6.3436    5.8663   -1.4429 H   0  0  0  0  0  0  0  0  0  0  0  0
    4.6553    5.4324   -1.8574 H   0  0  0  0  0  0  0  0  0  0  0  0
    3.7940    3.2913   -0.3672 H   0  0  0  0  0  0  0  0  0  0  0  0
   -3.5517   -3.2755    0.1856 H   0  0  0  0  0  0  0  0  0  0  0  0
   -4.5726   -1.4846    2.3585 H   0  0  0  0  0  0  0  0  0  0  0  0
   -5.5876   -4.3763    2.0517 H   0  0  0  0  0  0  0  0  0  0  0  0
   -4.6197   -3.7248    3.4235 H   0  0  0  0  0  0  0  0  0  0  0  0
   -6.2746   -3.1020    3.1516 H   0  0  0  0  0  0  0  0  0  0  0  0
   -7.4278   -3.0919    1.1485 H   0  0  0  0  0  0  0  0  0  0  0  0
   -7.9744   -0.3715    0.4911 H   0  0  0  0  0  0  0  0  0  0  0  0
   -9.7383   -2.8514   -0.0363 H   0  0  0  0  0  0  0  0  0  0  0  0
  -10.3085   -1.1360    0.1055 H   0  0  0  0  0  0  0  0  0  0  0  0
   -9.5972   -1.9614    1.5358 H   0  0  0  0  0  0  0  0  0  0  0  0
   -7.8716    0.0196   -3.1476 H   0  0  0  0  0  0  0  0  0  0  0  0
   -9.3733    0.9471   -0.6779 H   0  0  0  0  0  0  0  0  0  0  0  0
  -10.8950   -0.3644   -2.1470 H   0  0  0  0  0  0  0  0  0  0  0  0
  -10.4827    0.7089   -3.5323 H   0  0  0  0  0  0  0  0  0  0  0  0
  -11.3339    1.3928   -2.0886 H   0  0  0  0  0  0  0  0  0  0  0  0
   -8.6632    4.4238   -1.6998 H   0  0  0  0  0  0  0  0  0  0  0  0
   -7.7738    2.5217    0.3603 H   0  0  0  0  0  0  0  0  0  0  0  0
  -11.8774    3.5314    1.1077 H   0  0  0  0  0  0  0  0  0  0  0  0
  -11.0062    4.4907   -0.1400 H   0  0  0  0  0  0  0  0  0  0  0  0
   -7.7291    4.5046    1.8692 H   0  0  0  0  0  0  0  0  0  0  0  0
   -8.6836    5.4593    0.6755 H   0  0  0  0  0  0  0  0  0  0  0  0
   -5.7292    3.1938    1.1489 H   0  0  0  0  0  0  0  0  0  0  0  0
   -4.8892    4.6469    1.7298 H   0  0  0  0  0  0  0  0  0  0  0  0
  1  2  1  0
  2  3  2  0
  2  4  1  0
  4  5  1  0
  5  6  1  0
  6  7  1  0
  7  8  1  0
  8  9  1  0
  9 10  1  0
 10 11  2  0
 11 12  1  0
 12 13  2  0
 13 14  1  0
 13 15  1  0
 15 16  1  0
 16 17  1  0
 17 18  1  0
 18 19  1  0
 19 20  1  0
 20 21  2  0
 20 22  1  0
 22 23  1  0
 22 24  1  0
 24 25  1  0
 25 26  2  0
 25 27  1  0
 27 28  1  0
 27 29  1  0
 29 30  1  0
 30 31  2  0
 30 32  1  0
 32 33  1  0
 32 34  1  0
 34 35  1  0
 35 36  2  0
 35 37  1  0
 37 38  1  0
 37 39  1  0
 39 40  1  0
 40 41  2  0
 40 42  1  0
 42 43  1  0
 42 44  1  0
 44 45  1  0
 45 46  2  0
 45 47  1  0
 47 48  1  0
 47 49  1  0
 49 50  1  0
 50 51  2  0
 50 52  1  0
 52 53  1  0
 52 54  1  0
 54 55  1  0
 55 56  2  0
 18 57  1  0
 57 58  2  0
 57 59  1  0
 59 60  1  0
 60 61  1  0
 60 62  1  0
 62 63  2  0
 62 64  1  0
 64 65  1  0
 65 66  1  0
 65 67  1  0
 67 68  2  0
 67 69  1  0
 69 70  1  0
 70 71  1  0
 70 72  1  0
 72 73  2  0
 72 74  1  0
 74 75  1  0
 75 76  1  0
 76 77  1  0
 76 78  2  0
 75 79  1  0
 79 80  1  0
 80 81  1  0
 55  5  1  0
 14  9  2  0
 81 11  1  0
  1 82  1  0
  1 83  1  0
  1 84  1  0
  4 85  1  0
  5 86  1  1
  6 87  1  0
  6 88  1  0
  8 89  1  0
  8 90  1  0
 10 91  1  0
 12 92  1  0
 14 93  1  0
 15 94  1  0
 15 95  1  0
 17 96  1  0
 17 97  1  0
 18 98  1  1
 19 99  1  0
 22100  1  1
 23101  1  0
 23102  1  0
 23103  1  0
 24104  1  0
 27105  1  1
 28106  1  0
 28107  1  0
 28108  1  0
 29109  1  0
 32110  1  1
 33111  1  0
 33112  1  0
 33113  1  0
 34114  1  0
 37115  1  1
 38116  1  0
 38117  1  0
 38118  1  0
 39119  1  0
 42120  1  1
 43121  1  0
 43122  1  0
 43123  1  0
 44124  1  0
 47125  1  1
 48126  1  0
 48127  1  0
 48128  1  0
 49129  1  0
 52130  1  1
 53131  1  0
 53132  1  0
 53133  1  0
 54134  1  0
 59135  1  0
 60136  1  1
 61137  1  0
 61138  1  0
 61139  1  0
 64140  1  0
 65141  1  1
 66142  1  0
 66143  1  0
 66144  1  0
 69145  1  0
 70146  1  1
 71147  1  0
 71148  1  0
 71149  1  0
 74150  1  0
 75151  1  6
 77152  1  0
 77153  1  0
 79154  1  0
 79155  1  0
 81156  1  0
 81157  1  0
M  END
