
     RDKit          3D

157159  0  0  0  0  0  0  0  0999 V2000
    2.7581    8.6996    2.2592 C   0  0  0  0  0  0  0  0  0  0  0  0
    2.3210    8.4154    0.8546 C   0  0  0  0  0  0  0  0  0  0  0  0
    1.6048    9.2623    0.2632 O   0  0  0  0  0  0  0  0  0  0  0  0
    2.7662    7.2495    0.1373 N   0  0  0  0  0  0  0  0  0  0  0  0
    2.7865    5.8816    0.6861 C   0  0  2  0  0  0  0  0  0  0  0  0
    1.4047    5.5028    1.2744 C   0  0  0  0  0  0  0  0  0  0  0  0
    0.0647    5.7291    0.0480 S   0  0  0  0  0  0  0  0  0  0  0  0
    0.2159    4.1020   -0.7748 C   0  0  0  0  0  0  0  0  0  0  0  0
   -0.9274    3.2024   -0.3753 C   0  0  0  0  0  0  0  0  0  0  0  0
   -2.2148    3.4408   -0.8812 C   0  0  0  0  0  0  0  0  0  0  0  0
   -3.2789    2.5893   -0.5434 C   0  0  0  0  0  0  0  0  0  0  0  0
   -3.0401    1.4787    0.2790 C   0  0  0  0  0  0  0  0  0  0  0  0
   -1.7531    1.2147    0.7772 C   0  0  0  0  0  0  0  0  0  0  0  0
   -0.7025    2.0828    0.4479 C   0  0  0  0  0  0  0  0  0  0  0  0
   -1.5051   -0.0092    1.6169 C   0  0  0  0  0  0  0  0  0  0  0  0
   -0.5394   -1.2389    0.6810 S   0  0  0  0  0  0  0  0  0  0  0  0
   -1.9196   -1.9420   -0.3006 C   0  0  0  0  0  0  0  0  0  0  0  0
   -2.3437   -3.3254    0.2296 C   0  0  2  0  0  0  0  0  0  0  0  0
   -1.2557   -4.2962    0.0198 N   0  0  0  0  0  0  0  0  0  0  0  0
   -1.4866   -5.7040   -0.1544 C   0  0  0  0  0  0  0  0  0  0  0  0
   -2.1113   -6.3386    0.7266 O   0  0  0  0  0  0  0  0  0  0  0  0
   -1.1719   -6.3709   -1.4694 C   0  0  1  0  0  0  0  0  0  0  0  0
   -0.3709   -5.4959   -2.4434 C   0  0  0  0  0  0  0  0  0  0  0  0
   -0.5249   -7.6733   -1.2663 N   0  0  0  0  0  0  0  0  0  0  0  0
    0.8788   -7.8677   -1.0088 C   0  0  0  0  0  0  0  0  0  0  0  0
    1.4623   -8.8528   -1.5539 O   0  0  0  0  0  0  0  0  0  0  0  0
    1.6224   -7.0356    0.0125 C   0  0  1  0  0  0  0  0  0  0  0  0
    1.5416   -7.7061    1.3809 C   0  0  0  0  0  0  0  0  0  0  0  0
    3.0280   -6.8728   -0.3762 N   0  0  0  0  0  0  0  0  0  0  0  0
    3.5754   -5.5813   -0.6661 C   0  0  0  0  0  0  0  0  0  0  0  0
    2.9877   -4.8296   -1.4946 O   0  0  0  0  0  0  0  0  0  0  0  0
    4.8497   -5.0918   -0.0208 C   0  0  1  0  0  0  0  0  0  0  0  0
    5.2682   -5.9344    1.1934 C   0  0  0  0  0  0  0  0  0  0  0  0
    5.9374   -5.0473   -1.0098 N   0  0  0  0  0  0  0  0  0  0  0  0
    7.0855   -4.1816   -0.9422 C   0  0  0  0  0  0  0  0  0  0  0  0
    7.9823   -4.2965   -1.8207 O   0  0  0  0  0  0  0  0  0  0  0  0
    7.2758   -3.1440    0.1413 C   0  0  1  0  0  0  0  0  0  0  0  0
    8.6222   -3.3411    0.8470 C   0  0  0  0  0  0  0  0  0  0  0  0
    7.2158   -1.8003   -0.4340 N   0  0  0  0  0  0  0  0  0  0  0  0
    6.2752   -0.8136    0.0053 C   0  0  0  0  0  0  0  0  0  0  0  0
    5.1311   -1.1631    0.4102 O   0  0  0  0  0  0  0  0  0  0  0  0
    6.6515    0.6451    0.0138 C   0  0  1  0  0  0  0  0  0  0  0  0
    7.9205    0.8265    0.8635 C   0  0  0  0  0  0  0  0  0  0  0  0
    6.8497    1.1334   -1.3596 N   0  0  0  0  0  0  0  0  0  0  0  0
    6.9726    2.5108   -1.7600 C   0  0  0  0  0  0  0  0  0  0  0  0
    7.1097    2.7664   -2.9844 O   0  0  0  0  0  0  0  0  0  0  0  0
    7.0285    3.6623   -0.7733 C   0  0  1  0  0  0  0  0  0  0  0  0
    8.4971    4.0754   -0.5961 C   0  0  0  0  0  0  0  0  0  0  0  0
    6.2194    4.7998   -1.2485 N   0  0  0  0  0  0  0  0  0  0  0  0
    5.9859    6.0123   -0.5181 C   0  0  0  0  0  0  0  0  0  0  0  0
    5.5233    7.0052   -1.1436 O   0  0  0  0  0  0  0  0  0  0  0  0
    6.2715    6.1559    0.9565 C   0  0  1  0  0  0  0  0  0  0  0  0
    7.3620    7.2163    1.1723 C   0  0  0  0  0  0  0  0  0  0  0  0
    5.0562    6.5353    1.6876 N   0  0  0  0  0  0  0  0  0  0  0  0
    3.9072    5.6886    1.6829 C   0  0  0  0  0  0  0  0  0  0  0  0
    3.8414    4.7508    2.5234 O   0  0  0  0  0  0  0  0  0  0  0  0
   -3.6058   -3.7913   -0.4848 C   0  0  0  0  0  0  0  0  0  0  0  0
   -3.5788   -3.9114   -1.7430 O   0  0  0  0  0  0  0  0  0  0  0  0
   -4.7929   -4.1946    0.2211 N   0  0  0  0  0  0  0  0  0  0  0  0
   -5.2318   -3.6371    1.5056 C   0  0  2  0  0  0  0  0  0  0  0  0
   -4.7058   -4.5179    2.6475 C   0  0  0  0  0  0  0  0  0  0  0  0
   -6.7474   -3.5464    1.5501 C   0  0  0  0  0  0  0  0  0  0  0  0
   -7.4044   -4.3445    2.2769 O   0  0  0  0  0  0  0  0  0  0  0  0
   -7.4805   -2.5592    0.8014 N   0  0  0  0  0  0  0  0  0  0  0  0
   -7.1947   -2.2193   -0.5954 C   0  0  2  0  0  0  0  0  0  0  0  0
   -6.1894   -1.0793   -0.7041 C   0  0  0  0  0  0  0  0  0  0  0  0
   -8.4759   -1.9293   -1.3673 C   0  0  0  0  0  0  0  0  0  0  0  0
   -8.8726   -2.8062   -2.1888 O   0  0  0  0  0  0  0  0  0  0  0  0
   -9.2468   -0.7182   -1.2361 N   0  0  0  0  0  0  0  0  0  0  0  0
   -9.3512    0.1091   -0.0300 C   0  0  2  0  0  0  0  0  0  0  0  0
  -10.7053   -0.1511    0.6335 C   0  0  0  0  0  0  0  0  0  0  0  0
   -9.1534    1.5635   -0.3984 C   0  0  0  0  0  0  0  0  0  0  0  0
   -9.8625    2.4541    0.1463 O   0  0  0  0  0  0  0  0  0  0  0  0
   -8.1268    1.9242   -1.3393 N   0  0  0  0  0  0  0  0  0  0  0  0
   -7.7580    3.2929   -1.6990 C   0  0  1  0  0  0  0  0  0  0  0  0
   -8.9151    4.0179   -2.3537 C   0  0  0  0  0  0  0  0  0  0  0  0
   -9.8422    4.8165   -1.6125 N   0  0  0  0  0  0  0  0  0  0  0  0
   -9.0586    3.9228   -3.6016 O   0  0  0  0  0  0  0  0  0  0  0  0
   -7.1262    4.0602   -0.5202 C   0  0  0  0  0  0  0  0  0  0  0  0
   -5.8185    3.1114    0.3566 S   0  0  0  0  0  0  0  0  0  0  0  0
   -4.6716    2.8726   -1.0516 C   0  0  0  0  0  0  0  0  0  0  0  0
    2.5709    7.8285    2.9223 H   0  0  0  0  0  0  0  0  0  0  0  0
    3.8423    8.9489    2.2587 H   0  0  0  0  0  0  0  0  0  0  0  0
    2.2084    9.5750    2.6621 H   0  0  0  0  0  0  0  0  0  0  0  0
    2.8400    7.3341   -0.9051 H   0  0  0  0  0  0  0  0  0  0  0  0
    2.9917    5.1771   -0.1497 H   0  0  0  0  0  0  0  0  0  0  0  0
    1.1798    6.1395    2.1500 H   0  0  0  0  0  0  0  0  0  0  0  0
    1.4084    4.4516    1.6431 H   0  0  0  0  0  0  0  0  0  0  0  0
    1.1914    3.6237   -0.5407 H   0  0  0  0  0  0  0  0  0  0  0  0
    0.1921    4.2613   -1.8673 H   0  0  0  0  0  0  0  0  0  0  0  0
   -2.3875    4.2908   -1.5372 H   0  0  0  0  0  0  0  0  0  0  0  0
   -3.8575    0.8161    0.5328 H   0  0  0  0  0  0  0  0  0  0  0  0
    0.2891    1.8930    0.8282 H   0  0  0  0  0  0  0  0  0  0  0  0
   -0.9068    0.2847    2.5078 H   0  0  0  0  0  0  0  0  0  0  0  0
   -2.4507   -0.4617    1.9885 H   0  0  0  0  0  0  0  0  0  0  0  0
   -1.5654   -2.0573   -1.3487 H   0  0  0  0  0  0  0  0  0  0  0  0
   -2.7881   -1.2558   -0.3235 H   0  0  0  0  0  0  0  0  0  0  0  0
   -2.5142   -3.2223    1.3131 H   0  0  0  0  0  0  0  0  0  0  0  0
   -0.2683   -3.9921    0.1612 H   0  0  0  0  0  0  0  0  0  0  0  0
   -2.1577   -6.5624   -1.9578 H   0  0  0  0  0  0  0  0  0  0  0  0
    0.5447   -5.1133   -1.9637 H   0  0  0  0  0  0  0  0  0  0  0  0
   -0.9883   -4.6316   -2.7703 H   0  0  0  0  0  0  0  0  0  0  0  0
   -0.0774   -6.0782   -3.3486 H   0  0  0  0  0  0  0  0  0  0  0  0
   -1.0783   -8.5297   -1.5177 H   0  0  0  0  0  0  0  0  0  0  0  0
    1.1520   -6.0331    0.1086 H   0  0  0  0  0  0  0  0  0  0  0  0
    0.4774   -7.7895    1.7113 H   0  0  0  0  0  0  0  0  0  0  0  0
    1.9910   -8.7212    1.3376 H   0  0  0  0  0  0  0  0  0  0  0  0
    2.1102   -7.0981    2.1312 H   0  0  0  0  0  0  0  0  0  0  0  0
    3.6734   -7.6986   -0.3034 H   0  0  0  0  0  0  0  0  0  0  0  0
    4.6157   -4.0650    0.3210 H   0  0  0  0  0  0  0  0  0  0  0  0
    6.1441   -5.4631    1.7028 H   0  0  0  0  0  0  0  0  0  0  0  0
    4.4295   -5.9895    1.9251 H   0  0  0  0  0  0  0  0  0  0  0  0
    5.5597   -6.9556    0.8821 H   0  0  0  0  0  0  0  0  0  0  0  0
    5.9276   -5.7600   -1.7761 H   0  0  0  0  0  0  0  0  0  0  0  0
    6.5081   -3.2488    0.9355 H   0  0  0  0  0  0  0  0  0  0  0  0
    8.7327   -2.6018    1.6661 H   0  0  0  0  0  0  0  0  0  0  0  0
    9.4643   -3.2030    0.1249 H   0  0  0  0  0  0  0  0  0  0  0  0
    8.6840   -4.3631    1.2829 H   0  0  0  0  0  0  0  0  0  0  0  0
    7.9643   -1.5162   -1.1025 H   0  0  0  0  0  0  0  0  0  0  0  0
    5.8168    1.2077    0.4844 H   0  0  0  0  0  0  0  0  0  0  0  0
    8.8182    0.4725    0.3142 H   0  0  0  0  0  0  0  0  0  0  0  0
    7.8337    0.2464    1.8067 H   0  0  0  0  0  0  0  0  0  0  0  0
    8.0723    1.8847    1.1520 H   0  0  0  0  0  0  0  0  0  0  0  0
    6.8990    0.4336   -2.1322 H   0  0  0  0  0  0  0  0  0  0  0  0
    6.6141    3.3220    0.1917 H   0  0  0  0  0  0  0  0  0  0  0  0
    9.1607    3.1873   -0.5215 H   0  0  0  0  0  0  0  0  0  0  0  0
    8.8329    4.6919   -1.4588 H   0  0  0  0  0  0  0  0  0  0  0  0
    8.6318    4.6574    0.3260 H   0  0  0  0  0  0  0  0  0  0  0  0
    5.8139    4.7623   -2.2120 H   0  0  0  0  0  0  0  0  0  0  0  0
    6.6349    5.1992    1.3855 H   0  0  0  0  0  0  0  0  0  0  0  0
    6.9808    8.2229    0.9066 H   0  0  0  0  0  0  0  0  0  0  0  0
    8.2490    6.9974    0.5432 H   0  0  0  0  0  0  0  0  0  0  0  0
    7.6825    7.2118    2.2357 H   0  0  0  0  0  0  0  0  0  0  0  0
    5.1957    7.0771    2.5686 H   0  0  0  0  0  0  0  0  0  0  0  0
   -5.4063   -4.8939   -0.2428 H   0  0  0  0  0  0  0  0  0  0  0  0
   -4.8181   -2.6102    1.6473 H   0  0  0  0  0  0  0  0  0  0  0  0
   -3.6033   -4.5807    2.6388 H   0  0  0  0  0  0  0  0  0  0  0  0
   -5.0140   -4.0941    3.6254 H   0  0  0  0  0  0  0  0  0  0  0  0
   -5.0934   -5.5555    2.5538 H   0  0  0  0  0  0  0  0  0  0  0  0
   -8.4491   -2.3737    1.1519 H   0  0  0  0  0  0  0  0  0  0  0  0
   -6.7391   -3.1067   -1.0803 H   0  0  0  0  0  0  0  0  0  0  0  0
   -5.2026   -1.4001   -0.3021 H   0  0  0  0  0  0  0  0  0  0  0  0
   -6.0277   -0.8056   -1.7684 H   0  0  0  0  0  0  0  0  0  0  0  0
   -6.5094   -0.1878   -0.1327 H   0  0  0  0  0  0  0  0  0  0  0  0
   -9.9208   -0.5163   -2.0038 H   0  0  0  0  0  0  0  0  0  0  0  0
   -8.5556   -0.1499    0.7022 H   0  0  0  0  0  0  0  0  0  0  0  0
  -10.7717    0.3712    1.6063 H   0  0  0  0  0  0  0  0  0  0  0  0
  -11.5368    0.1974   -0.0243 H   0  0  0  0  0  0  0  0  0  0  0  0
  -10.8322   -1.2312    0.8151 H   0  0  0  0  0  0  0  0  0  0  0  0
   -7.5784    1.1541   -1.7870 H   0  0  0  0  0  0  0  0  0  0  0  0
   -6.9652    3.2228   -2.4818 H   0  0  0  0  0  0  0  0  0  0  0  0
   -9.7704    4.9497   -0.5809 H   0  0  0  0  0  0  0  0  0  0  0  0
  -10.6118    5.3258   -2.1113 H   0  0  0  0  0  0  0  0  0  0  0  0
   -6.7027    5.0194   -0.8859 H   0  0  0  0  0  0  0  0  0  0  0  0
   -7.8800    4.2997    0.2422 H   0  0  0  0  0  0  0  0  0  0  0  0
   -4.6791    3.7615   -1.7044 H   0  0  0  0  0  0  0  0  0  0  0  0
   -5.0170    1.9960   -1.6370 H   0  0  0  0  0  0  0  0  0  0  0  0
  1  2  1  0
  2  3  2  0
  2  4  1  0
  4  5  1  0
  5  6  1  0
  6  7  1  0
  7  8  1  0
  8  9  1  0
  9 10  1  0
 10 11  2  0
 11 12  1  0
 12 13  2  0
 13 14  1  0
 13 15  1  0
 15 16  1  0
 16 17  1  0
 17 18  1  0
 18 19  1  0
 19 20  1  0
 20 21  2  0
 20 22  1  0
 22 23  1  0
 22 24  1  0
 24 25  1  0
 25 26  2  0
 25 27  1  0
 27 28  1  0
 27 29  1  0
 29 30  1  0
 30 31  2  0
 30 32  1  0
 32 33  1  0
 32 34  1  0
 34 35  1  0
 35 36  2  0
 35 37  1  0
 37 38  1  0
 37 39  1  0
 39 40  1  0
 40 41  2  0
 40 42  1  0
 42 43  1  0
 42 44  1  0
 44 45  1  0
 45 46  2  0
 45 47  1  0
 47 48  1  0
 47 49  1  0
 49 50  1  0
 50 51  2  0
 50 52  1  0
 52 53  1  0
 52 54  1  0
 54 55  1  0
 55 56  2  0
 18 57  1  0
 57 58  2  0
 57 59  1  0
 59 60  1  0
 60 61  1  0
 60 62  1  0
 62 63  2  0
 62 64  1  0
 64 65  1  0
 65 66  1  0
 65 67  1  0
 67 68  2  0
 67 69  1  0
 69 70  1  0
 70 71  1  0
 70 72  1  0
 72 73  2  0
 72 74  1  0
 74 75  1  0
 75 76  1  0
 76 77  1  0
 76 78  2  0
 75 79  1  0
 79 80  1  0
 80 81  1  0
 55  5  1  0
 14  9  2  0
 81 11  1  0
  1 82  1  0
  1 83  1  0
  1 84  1  0
  4 85  1  0
  5 86  1  6
  6 87  1  0
  6 88  1  0
  8 89  1  0
  8 90  1  0
 10 91  1  0
 12 92  1  0
 14 93  1  0
 15 94  1  0
 15 95  1  0
 17 96  1  0
 17 97  1  0
 18 98  1  1
 19 99  1  0
 22100  1  6
 23101  1  0
 23102  1  0
 23103  1  0
 24104  1  0
 27105  1  1
 28106  1  0
 28107  1  0
 28108  1  0
 29109  1  0
 32110  1  1
 33111  1  0
 33112  1  0
 33113  1  0
 34114  1  0
 37115  1  1
 38116  1  0
 38117  1  0
 38118  1  0
 39119  1  0
 42120  1  1
 43121  1  0
 43122  1  0
 43123  1  0
 44124  1  0
 47125  1  1
 48126  1  0
 48127  1  0
 48128  1  0
 49129  1  0
 52130  1  1
 53131  1  0
 53132  1  0
 53133  1  0
 54134  1  0
 59135  1  0
 60136  1  1
 61137  1  0
 61138  1  0
 61139  1  0
 64140  1  0
 65141  1  6
 66142  1  0
 66143  1  0
 66144  1  0
 69145  1  0
 70146  1  1
 71147  1  0
 71148  1  0
 71149  1  0
 74150  1  0
 75151  1  6
 77152  1  0
 77153  1  0
 79154  1  0
 79155  1  0
 81156  1  0
 81157  1  0
M  END
