
     RDKit          3D

227229  0  0  0  0  0  0  0  0999 V2000
    6.3222    8.6161    1.6247 C   0  0  0  0  0  0  0  0  0  0  0  0
    7.3388    7.6954    2.2329 C   0  0  0  0  0  0  0  0  0  0  0  0
    8.2464    8.2026    2.9547 O   0  0  0  0  0  0  0  0  0  0  0  0
    7.3321    6.2696    2.0336 N   0  0  0  0  0  0  0  0  0  0  0  0
    6.3159    5.5367    1.2643 C   0  0  2  0  0  0  0  0  0  0  0  0
    6.3630    4.0216    1.5616 C   0  0  0  0  0  0  0  0  0  0  0  0
    4.7198    3.2607    1.2893 S   0  0  0  0  0  0  0  0  0  0  0  0
    5.0361    2.6363   -0.3963 C   0  0  0  0  0  0  0  0  0  0  0  0
    3.7300    2.4302   -1.1124 C   0  0  0  0  0  0  0  0  0  0  0  0
    2.9203    3.5307   -1.4286 C   0  0  0  0  0  0  0  0  0  0  0  0
    1.7276    3.3597   -2.1448 C   0  0  0  0  0  0  0  0  0  0  0  0
    1.3268    2.0639   -2.5151 C   0  0  0  0  0  0  0  0  0  0  0  0
    2.1185    0.9518   -2.1870 C   0  0  0  0  0  0  0  0  0  0  0  0
    3.3181    1.1379   -1.4843 C   0  0  0  0  0  0  0  0  0  0  0  0
    1.6767   -0.4263   -2.5946 C   0  0  0  0  0  0  0  0  0  0  0  0
    0.2584   -0.9728   -1.5726 S   0  0  0  0  0  0  0  0  0  0  0  0
    1.2350   -1.6530   -0.1744 C   0  0  0  0  0  0  0  0  0  0  0  0
    1.7160   -3.0914   -0.4308 C   0  0  1  0  0  0  0  0  0  0  0  0
    2.4237   -3.5832    0.7527 N   0  0  0  0  0  0  0  0  0  0  0  0
    3.8272   -3.8768    0.7308 C   0  0  0  0  0  0  0  0  0  0  0  0
    4.6310   -3.0540    1.2507 O   0  0  0  0  0  0  0  0  0  0  0  0
    4.3630   -5.1749    0.1720 C   0  0  1  0  0  0  0  0  0  0  0  0
    3.2659   -6.1943   -0.1096 C   0  0  0  0  0  0  0  0  0  0  0  0
    5.1223   -4.9261   -1.0568 N   0  0  0  0  0  0  0  0  0  0  0  0
    6.3921   -5.5271   -1.3825 C   0  0  0  0  0  0  0  0  0  0  0  0
    6.7568   -5.5530   -2.5930 O   0  0  0  0  0  0  0  0  0  0  0  0
    7.2802   -6.1733   -0.3444 C   0  0  1  0  0  0  0  0  0  0  0  0
    6.9890   -7.6723   -0.2654 C   0  0  0  0  0  0  0  0  0  0  0  0
    8.6978   -5.9509   -0.6497 N   0  0  0  0  0  0  0  0  0  0  0  0
    9.2425   -4.6297   -0.5472 C   0  0  0  0  0  0  0  0  0  0  0  0
    8.8781   -3.7405   -1.3615 O   0  0  0  0  0  0  0  0  0  0  0  0
   10.2118   -4.2758    0.5492 C   0  0  1  0  0  0  0  0  0  0  0  0
    9.5469   -4.4534    1.9141 C   0  0  0  0  0  0  0  0  0  0  0  0
   11.4097   -5.1205    0.4666 N   0  0  0  0  0  0  0  0  0  0  0  0
   12.7575   -4.6358    0.3440 C   0  0  0  0  0  0  0  0  0  0  0  0
   13.6707   -5.4674    0.0847 O   0  0  0  0  0  0  0  0  0  0  0  0
   13.1038   -3.1647    0.4413 C   0  0  1  0  0  0  0  0  0  0  0  0
   14.5611   -2.9653    0.8750 C   0  0  0  0  0  0  0  0  0  0  0  0
   12.8764   -2.5277   -0.8607 N   0  0  0  0  0  0  0  0  0  0  0  0
   12.3439   -1.2063   -1.0524 C   0  0  0  0  0  0  0  0  0  0  0  0
   11.7622   -0.9492   -2.1397 O   0  0  0  0  0  0  0  0  0  0  0  0
   12.6208   -0.0820   -0.0758 C   0  0  1  0  0  0  0  0  0  0  0  0
   13.9785    0.5429   -0.3968 C   0  0  0  0  0  0  0  0  0  0  0  0
   11.5818    0.9591   -0.1326 N   0  0  0  0  0  0  0  0  0  0  0  0
   11.5428    2.0281    0.8293 C   0  0  0  0  0  0  0  0  0  0  0  0
   11.6826    1.7660    2.0558 O   0  0  0  0  0  0  0  0  0  0  0  0
   11.4421    3.4739    0.3988 C   0  0  1  0  0  0  0  0  0  0  0  0
   12.8362    4.1035    0.4347 C   0  0  0  0  0  0  0  0  0  0  0  0
   10.8933    3.5895   -0.9545 N   0  0  0  0  0  0  0  0  0  0  0  0
    9.6677    4.2534   -1.3274 C   0  0  0  0  0  0  0  0  0  0  0  0
    9.2069    4.0331   -2.4841 O   0  0  0  0  0  0  0  0  0  0  0  0
    8.9840    5.2803   -0.4430 C   0  0  1  0  0  0  0  0  0  0  0  0
    9.8291    6.5557   -0.3829 C   0  0  0  0  0  0  0  0  0  0  0  0
    7.6582    5.6252   -0.9762 N   0  0  0  0  0  0  0  0  0  0  0  0
    6.4435    5.8121   -0.2195 C   0  0  0  0  0  0  0  0  0  0  0  0
    5.4209    6.2170   -0.8342 O   0  0  0  0  0  0  0  0  0  0  0  0
    0.5639   -4.0045   -0.7496 C   0  0  0  0  0  0  0  0  0  0  0  0
    0.4412   -4.4632   -1.9193 O   0  0  0  0  0  0  0  0  0  0  0  0
   -0.4220   -4.3223    0.2397 N   0  0  0  0  0  0  0  0  0  0  0  0
   -0.3827   -5.5809    0.9960 C   0  0  2  0  0  0  0  0  0  0  0  0
   -0.3649   -6.7991    0.0654 C   0  0  0  0  0  0  0  0  0  0  0  0
   -1.5426   -5.6824    1.9523 C   0  0  0  0  0  0  0  0  0  0  0  0
   -1.3216   -5.9663    3.1631 O   0  0  0  0  0  0  0  0  0  0  0  0
   -2.8897   -5.4452    1.5228 N   0  0  0  0  0  0  0  0  0  0  0  0
   -3.8794   -6.4973    1.2385 C   0  0  2  0  0  0  0  0  0  0  0  0
   -3.4086   -7.8879    1.6960 C   0  0  0  0  0  0  0  0  0  0  0  0
   -4.2191   -6.4906   -0.2446 C   0  0  0  0  0  0  0  0  0  0  0  0
   -3.5369   -5.7759   -1.0281 O   0  0  0  0  0  0  0  0  0  0  0  0
   -5.2843   -7.2809   -0.8013 N   0  0  0  0  0  0  0  0  0  0  0  0
   -6.4044   -7.8499   -0.0490 C   0  0  2  0  0  0  0  0  0  0  0  0
   -6.5675   -9.3276   -0.4094 C   0  0  0  0  0  0  0  0  0  0  0  0
   -7.6579   -7.0786   -0.3533 C   0  0  0  0  0  0  0  0  0  0  0  0
   -8.1895   -7.1752   -1.4968 O   0  0  0  0  0  0  0  0  0  0  0  0
   -8.2366   -6.2242    0.6494 N   0  0  0  0  0  0  0  0  0  0  0  0
   -9.6735   -5.9430    0.7662 C   0  0  2  0  0  0  0  0  0  0  0  0
  -10.4934   -7.2344    0.7190 C   0  0  0  0  0  0  0  0  0  0  0  0
  -10.1169   -4.9461   -0.2785 C   0  0  0  0  0  0  0  0  0  0  0  0
  -10.1347   -5.2655   -1.4988 O   0  0  0  0  0  0  0  0  0  0  0  0
  -10.4964   -3.6213    0.1100 N   0  0  0  0  0  0  0  0  0  0  0  0
  -11.8896   -3.1945    0.2906 C   0  0  2  0  0  0  0  0  0  0  0  0
  -12.7219   -4.2863    0.9811 C   0  0  0  0  0  0  0  0  0  0  0  0
  -12.5092   -2.8306   -1.0410 C   0  0  0  0  0  0  0  0  0  0  0  0
  -12.5076   -3.6939   -1.9591 O   0  0  0  0  0  0  0  0  0  0  0  0
  -13.1231   -1.5554   -1.3115 N   0  0  0  0  0  0  0  0  0  0  0  0
  -13.2960   -0.4641   -0.3402 C   0  0  2  0  0  0  0  0  0  0  0  0
  -14.3697   -0.8248    0.6896 C   0  0  0  0  0  0  0  0  0  0  0  0
  -13.7171    0.8079   -1.0523 C   0  0  0  0  0  0  0  0  0  0  0  0
  -14.6522    0.7553   -1.8928 O   0  0  0  0  0  0  0  0  0  0  0  0
  -13.0793    2.0732   -0.8115 N   0  0  0  0  0  0  0  0  0  0  0  0
  -12.5889    2.5088    0.5026 C   0  0  2  0  0  0  0  0  0  0  0  0
  -13.6566    3.3569    1.1973 C   0  0  0  0  0  0  0  0  0  0  0  0
  -11.3020    3.2764    0.3409 C   0  0  0  0  0  0  0  0  0  0  0  0
  -10.3363    3.0254    1.1086 O   0  0  0  0  0  0  0  0  0  0  0  0
  -11.1397    4.2264   -0.7109 N   0  0  0  0  0  0  0  0  0  0  0  0
  -11.3668    5.6593   -0.4845 C   0  0  2  0  0  0  0  0  0  0  0  0
  -11.3796    6.4052   -1.8213 C   0  0  0  0  0  0  0  0  0  0  0  0
  -10.3018    6.2113    0.4201 C   0  0  0  0  0  0  0  0  0  0  0  0
  -10.6384    6.9292    1.3951 O   0  0  0  0  0  0  0  0  0  0  0  0
   -8.9181    5.8758    0.1959 N   0  0  0  0  0  0  0  0  0  0  0  0
   -7.8145    6.1073    1.1346 C   0  0  2  0  0  0  0  0  0  0  0  0
   -8.2206    5.9006    2.6013 C   0  0  0  0  0  0  0  0  0  0  0  0
   -7.2225    7.4769    0.9258 C   0  0  0  0  0  0  0  0  0  0  0  0
   -7.9690    8.4837    1.0727 O   0  0  0  0  0  0  0  0  0  0  0  0
   -5.8278    7.6962    0.6306 N   0  0  0  0  0  0  0  0  0  0  0  0
   -4.9523    6.8987   -0.2394 C   0  0  2  0  0  0  0  0  0  0  0  0
   -5.6970    6.2438   -1.4128 C   0  0  0  0  0  0  0  0  0  0  0  0
   -4.1426    5.8883    0.5569 C   0  0  0  0  0  0  0  0  0  0  0  0
   -4.7394    5.1020    1.3425 O   0  0  0  0  0  0  0  0  0  0  0  0
   -2.7127    5.7659    0.4320 N   0  0  0  0  0  0  0  0  0  0  0  0
   -1.8661    6.6537   -0.3739 C   0  0  1  0  0  0  0  0  0  0  0  0
   -1.6909    7.9688    0.3309 C   0  0  0  0  0  0  0  0  0  0  0  0
   -1.2349    8.0174    1.6860 N   0  0  0  0  0  0  0  0  0  0  0  0
   -1.9401    9.0412   -0.2807 O   0  0  0  0  0  0  0  0  0  0  0  0
   -0.4991    6.0073   -0.6396 C   0  0  0  0  0  0  0  0  0  0  0  0
   -0.7192    4.5070   -1.6705 S   0  0  0  0  0  0  0  0  0  0  0  0
    0.8948    4.5458   -2.5358 C   0  0  0  0  0  0  0  0  0  0  0  0
    5.8172    9.1922    2.4294 H   0  0  0  0  0  0  0  0  0  0  0  0
    6.8357    9.3303    0.9451 H   0  0  0  0  0  0  0  0  0  0  0  0
    5.5415    8.0840    1.0452 H   0  0  0  0  0  0  0  0  0  0  0  0
    8.0626    5.7242    2.5431 H   0  0  0  0  0  0  0  0  0  0  0  0
    5.3257    5.8969    1.6158 H   0  0  0  0  0  0  0  0  0  0  0  0
    6.6018    3.8688    2.6342 H   0  0  0  0  0  0  0  0  0  0  0  0
    7.1448    3.5030    0.9691 H   0  0  0  0  0  0  0  0  0  0  0  0
    5.6036    1.6865   -0.3108 H   0  0  0  0  0  0  0  0  0  0  0  0
    5.6492    3.3497   -0.9834 H   0  0  0  0  0  0  0  0  0  0  0  0
    3.2235    4.5189   -1.1091 H   0  0  0  0  0  0  0  0  0  0  0  0
    0.3992    1.9211   -3.0611 H   0  0  0  0  0  0  0  0  0  0  0  0
    3.9266    0.2807   -1.2272 H   0  0  0  0  0  0  0  0  0  0  0  0
    2.5158   -1.1525   -2.5366 H   0  0  0  0  0  0  0  0  0  0  0  0
    1.3530   -0.4023   -3.6579 H   0  0  0  0  0  0  0  0  0  0  0  0
    0.5753   -1.6333    0.7224 H   0  0  0  0  0  0  0  0  0  0  0  0
    2.1008   -0.9925    0.0366 H   0  0  0  0  0  0  0  0  0  0  0  0
    2.4097   -3.0800   -1.2994 H   0  0  0  0  0  0  0  0  0  0  0  0
    1.9685   -3.4814    1.6842 H   0  0  0  0  0  0  0  0  0  0  0  0
    5.0008   -5.6176    0.9637 H   0  0  0  0  0  0  0  0  0  0  0  0
    2.6222   -5.8357   -0.9376 H   0  0  0  0  0  0  0  0  0  0  0  0
    3.7138   -7.1565   -0.4319 H   0  0  0  0  0  0  0  0  0  0  0  0
    2.6586   -6.3810    0.7993 H   0  0  0  0  0  0  0  0  0  0  0  0
    4.6046   -4.4791   -1.8456 H   0  0  0  0  0  0  0  0  0  0  0  0
    7.0928   -5.7211    0.6487 H   0  0  0  0  0  0  0  0  0  0  0  0
    7.6249   -8.1392    0.5141 H   0  0  0  0  0  0  0  0  0  0  0  0
    5.9293   -7.8436    0.0085 H   0  0  0  0  0  0  0  0  0  0  0  0
    7.1928   -8.1592   -1.2431 H   0  0  0  0  0  0  0  0  0  0  0  0
    9.3602   -6.7514   -0.5668 H   0  0  0  0  0  0  0  0  0  0  0  0
   10.4699   -3.2036    0.4348 H   0  0  0  0  0  0  0  0  0  0  0  0
   10.2376   -4.1374    2.7207 H   0  0  0  0  0  0  0  0  0  0  0  0
    8.6273   -3.8342    1.9781 H   0  0  0  0  0  0  0  0  0  0  0  0
    9.2751   -5.5172    2.0891 H   0  0  0  0  0  0  0  0  0  0  0  0
   11.2849   -6.1578    0.5144 H   0  0  0  0  0  0  0  0  0  0  0  0
   12.4663   -2.7077    1.2223 H   0  0  0  0  0  0  0  0  0  0  0  0
   15.2549   -3.2595    0.0581 H   0  0  0  0  0  0  0  0  0  0  0  0
   14.7841   -3.5811    1.7751 H   0  0  0  0  0  0  0  0  0  0  0  0
   14.7452   -1.9029    1.1339 H   0  0  0  0  0  0  0  0  0  0  0  0
   13.0217   -3.1065   -1.7164 H   0  0  0  0  0  0  0  0  0  0  0  0
   12.6470   -0.4883    0.9573 H   0  0  0  0  0  0  0  0  0  0  0  0
   14.2863    1.2324    0.4188 H   0  0  0  0  0  0  0  0  0  0  0  0
   13.9207    1.1178   -1.3470 H   0  0  0  0  0  0  0  0  0  0  0  0
   14.7605   -0.2375   -0.5020 H   0  0  0  0  0  0  0  0  0  0  0  0
   10.9232    1.0014   -0.9436 H   0  0  0  0  0  0  0  0  0  0  0  0
   10.8102    4.0097    1.1353 H   0  0  0  0  0  0  0  0  0  0  0  0
   13.5205    3.5683   -0.2591 H   0  0  0  0  0  0  0  0  0  0  0  0
   13.2469    4.0645    1.4622 H   0  0  0  0  0  0  0  0  0  0  0  0
   12.7822    5.1653    0.1156 H   0  0  0  0  0  0  0  0  0  0  0  0
   11.4371    3.1551   -1.7320 H   0  0  0  0  0  0  0  0  0  0  0  0
    8.8894    4.8647    0.5718 H   0  0  0  0  0  0  0  0  0  0  0  0
    9.2789    7.3488    0.1665 H   0  0  0  0  0  0  0  0  0  0  0  0
   10.0540    6.9288   -1.4057 H   0  0  0  0  0  0  0  0  0  0  0  0
   10.7787    6.3734    0.1558 H   0  0  0  0  0  0  0  0  0  0  0  0
    7.6071    5.8811   -1.9936 H   0  0  0  0  0  0  0  0  0  0  0  0
   -1.1715   -3.6128    0.4165 H   0  0  0  0  0  0  0  0  0  0  0  0
    0.5556   -5.5954    1.5881 H   0  0  0  0  0  0  0  0  0  0  0  0
   -1.2826   -6.8418   -0.5520 H   0  0  0  0  0  0  0  0  0  0  0  0
    0.5051   -6.7721   -0.6157 H   0  0  0  0  0  0  0  0  0  0  0  0
   -0.2761   -7.7290    0.6673 H   0  0  0  0  0  0  0  0  0  0  0  0
   -3.1555   -4.4607    1.2997 H   0  0  0  0  0  0  0  0  0  0  0  0
   -4.7976   -6.2408    1.8059 H   0  0  0  0  0  0  0  0  0  0  0  0
   -2.5237   -8.2221    1.1170 H   0  0  0  0  0  0  0  0  0  0  0  0
   -4.1981   -8.6499    1.5562 H   0  0  0  0  0  0  0  0  0  0  0  0
   -3.1550   -7.8734    2.7769 H   0  0  0  0  0  0  0  0  0  0  0  0
   -5.3322   -7.3391   -1.8455 H   0  0  0  0  0  0  0  0  0  0  0  0
   -6.2244   -7.7953    1.0417 H   0  0  0  0  0  0  0  0  0  0  0  0
   -5.6595   -9.8905   -0.1069 H   0  0  0  0  0  0  0  0  0  0  0  0
   -6.7071   -9.4529   -1.5060 H   0  0  0  0  0  0  0  0  0  0  0  0
   -7.4405   -9.7633    0.1182 H   0  0  0  0  0  0  0  0  0  0  0  0
   -7.6158   -5.8953    1.4258 H   0  0  0  0  0  0  0  0  0  0  0  0
   -9.8442   -5.4759    1.7639 H   0  0  0  0  0  0  0  0  0  0  0  0
  -10.4496   -7.7003   -0.2877 H   0  0  0  0  0  0  0  0  0  0  0  0
  -10.0980   -7.9554    1.4655 H   0  0  0  0  0  0  0  0  0  0  0  0
  -11.5504   -7.0287    0.9704 H   0  0  0  0  0  0  0  0  0  0  0  0
   -9.7744   -2.8698    0.0108 H   0  0  0  0  0  0  0  0  0  0  0  0
  -11.8788   -2.3241    0.9727 H   0  0  0  0  0  0  0  0  0  0  0  0
  -12.2339   -4.5946    1.9312 H   0  0  0  0  0  0  0  0  0  0  0  0
  -12.8368   -5.1737    0.3210 H   0  0  0  0  0  0  0  0  0  0  0  0
  -13.7371   -3.9108    1.2193 H   0  0  0  0  0  0  0  0  0  0  0  0
  -13.4425   -1.4047   -2.2960 H   0  0  0  0  0  0  0  0  0  0  0  0
  -12.3269   -0.2854    0.1670 H   0  0  0  0  0  0  0  0  0  0  0  0
  -14.6217    0.0572    1.3215 H   0  0  0  0  0  0  0  0  0  0  0  0
  -14.0190   -1.6186    1.3763 H   0  0  0  0  0  0  0  0  0  0  0  0
  -15.2980   -1.1771    0.1846 H   0  0  0  0  0  0  0  0  0  0  0  0
  -13.2339    2.8130   -1.5314 H   0  0  0  0  0  0  0  0  0  0  0  0
  -12.3918    1.6397    1.1608 H   0  0  0  0  0  0  0  0  0  0  0  0
  -14.5461    2.7315    1.4151 H   0  0  0  0  0  0  0  0  0  0  0  0
  -13.2647    3.7568    2.1608 H   0  0  0  0  0  0  0  0  0  0  0  0
  -13.9731    4.2010    0.5507 H   0  0  0  0  0  0  0  0  0  0  0  0
  -10.4898    3.9492   -1.4829 H   0  0  0  0  0  0  0  0  0  0  0  0
  -12.3613    5.7957   -0.0075 H   0  0  0  0  0  0  0  0  0  0  0  0
  -11.6244    7.4782   -1.6571 H   0  0  0  0  0  0  0  0  0  0  0  0
  -10.3929    6.3314   -2.3208 H   0  0  0  0  0  0  0  0  0  0  0  0
  -12.1505    5.9713   -2.4921 H   0  0  0  0  0  0  0  0  0  0  0  0
   -8.6653    5.4801   -0.7411 H   0  0  0  0  0  0  0  0  0  0  0  0
   -7.0577    5.3308    0.9341 H   0  0  0  0  0  0  0  0  0  0  0  0
   -8.7640    6.7739    3.0045 H   0  0  0  0  0  0  0  0  0  0  0  0
   -8.8523    4.9925    2.7010 H   0  0  0  0  0  0  0  0  0  0  0  0
   -7.3123    5.7645    3.2238 H   0  0  0  0  0  0  0  0  0  0  0  0
   -5.4536    8.6354    0.9017 H   0  0  0  0  0  0  0  0  0  0  0  0
   -4.2600    7.6191   -0.7119 H   0  0  0  0  0  0  0  0  0  0  0  0
   -6.2312    5.3253   -1.1117 H   0  0  0  0  0  0  0  0  0  0  0  0
   -4.9655    5.9588   -2.1968 H   0  0  0  0  0  0  0  0  0  0  0  0
   -6.4162    6.9650   -1.8539 H   0  0  0  0  0  0  0  0  0  0  0  0
   -2.2484    5.0149    0.9874 H   0  0  0  0  0  0  0  0  0  0  0  0
   -2.3300    6.8174   -1.3688 H   0  0  0  0  0  0  0  0  0  0  0  0
   -1.1606    8.9330    2.1830 H   0  0  0  0  0  0  0  0  0  0  0  0
   -1.0484    7.1408    2.2252 H   0  0  0  0  0  0  0  0  0  0  0  0
   -0.0029    5.7216    0.3122 H   0  0  0  0  0  0  0  0  0  0  0  0
    0.1334    6.7525   -1.1635 H   0  0  0  0  0  0  0  0  0  0  0  0
    1.4533    5.4883   -2.3549 H   0  0  0  0  0  0  0  0  0  0  0  0
    0.6977    4.4983   -3.6287 H   0  0  0  0  0  0  0  0  0  0  0  0
  1  2  1  0
  2  3  2  0
  2  4  1  0
  4  5  1  0
  5  6  1  0
  6  7  1  0
  7  8  1  0
  8  9  1  0
  9 10  1  0
 10 11  2  0
 11 12  1  0
 12 13  2  0
 13 14  1  0
 13 15  1  0
 15 16  1  0
 16 17  1  0
 17 18  1  0
 18 19  1  0
 19 20  1  0
 20 21  2  0
 20 22  1  0
 22 23  1  0
 22 24  1  0
 24 25  1  0
 25 26  2  0
 25 27  1  0
 27 28  1  0
 27 29  1  0
 29 30  1  0
 30 31  2  0
 30 32  1  0
 32 33  1  0
 32 34  1  0
 34 35  1  0
 35 36  2  0
 35 37  1  0
 37 38  1  0
 37 39  1  0
 39 40  1  0
 40 41  2  0
 40 42  1  0
 42 43  1  0
 42 44  1  0
 44 45  1  0
 45 46  2  0
 45 47  1  0
 47 48  1  0
 47 49  1  0
 49 50  1  0
 50 51  2  0
 50 52  1  0
 52 53  1  0
 52 54  1  0
 54 55  1  0
 55 56  2  0
 18 57  1  0
 57 58  2  0
 57 59  1  0
 59 60  1  0
 60 61  1  0
 60 62  1  0
 62 63  2  0
 62 64  1  0
 64 65  1  0
 65 66  1  0
 65 67  1  0
 67 68  2  0
 67 69  1  0
 69 70  1  0
 70 71  1  0
 70 72  1  0
 72 73  2  0
 72 74  1  0
 74 75  1  0
 75 76  1  0
 75 77  1  0
 77 78  2  0
 77 79  1  0
 79 80  1  0
 80 81  1  0
 80 82  1  0
 82 83  2  0
 82 84  1  0
 84 85  1  0
 85 86  1  0
 85 87  1  0
 87 88  2  0
 87 89  1  0
 89 90  1  0
 90 91  1  0
 90 92  1  0
 92 93  2  0
 92 94  1  0
 94 95  1  0
 95 96  1  0
 95 97  1  0
 97 98  2  0
 97 99  1  0
 99100  1  0
100101  1  0
100102  1  0
102103  2  0
102104  1  0
104105  1  0
105106  1  0
105107  1  0
107108  2  0
107109  1  0
109110  1  0
110111  1  0
111112  1  0
111113  2  0
110114  1  0
114115  1  0
115116  1  0
 55  5  1  0
 14  9  2  0
116 11  1  0
  1117  1  0
  1118  1  0
  1119  1  0
  4120  1  0
  5121  1  1
  6122  1  0
  6123  1  0
  8124  1  0
  8125  1  0
 10126  1  0
 12127  1  0
 14128  1  0
 15129  1  0
 15130  1  0
 17131  1  0
 17132  1  0
 18133  1  6
 19134  1  0
 22135  1  1
 23136  1  0
 23137  1  0
 23138  1  0
 24139  1  0
 27140  1  1
 28141  1  0
 28142  1  0
 28143  1  0
 29144  1  0
 32145  1  6
 33146  1  0
 33147  1  0
 33148  1  0
 34149  1  0
 37150  1  1
 38151  1  0
 38152  1  0
 38153  1  0
 39154  1  0
 42155  1  1
 43156  1  0
 43157  1  0
 43158  1  0
 44159  1  0
 47160  1  1
 48161  1  0
 48162  1  0
 48163  1  0
 49164  1  0
 52165  1  1
 53166  1  0
 53167  1  0
 53168  1  0
 54169  1  0
 59170  1  0
 60171  1  1
 61172  1  0
 61173  1  0
 61174  1  0
 64175  1  0
 65176  1  1
 66177  1  0
 66178  1  0
 66179  1  0
 69180  1  0
 70181  1  1
 71182  1  0
 71183  1  0
 71184  1  0
 74185  1  0
 75186  1  1
 76187  1  0
 76188  1  0
 76189  1  0
 79190  1  0
 80191  1  1
 81192  1  0
 81193  1  0
 81194  1  0
 84195  1  0
 85196  1  1
 86197  1  0
 86198  1  0
 86199  1  0
 89200  1  0
 90201  1  1
 91202  1  0
 91203  1  0
 91204  1  0
 94205  1  0
 95206  1  1
 96207  1  0
 96208  1  0
 96209  1  0
 99210  1  0
100211  1  6
101212  1  0
101213  1  0
101214  1  0
104215  1  0
105216  1  6
106217  1  0
106218  1  0
106219  1  0
109220  1  0
110221  1  6
112222  1  0
112223  1  0
114224  1  0
114225  1  0
116226  1  0
116227  1  0
M  END
