
     RDKit          3D

227229  0  0  0  0  0  0  0  0999 V2000
   -6.3473    8.3711   -1.6235 C   0  0  0  0  0  0  0  0  0  0  0  0
   -6.1435    8.7947   -0.2000 C   0  0  0  0  0  0  0  0  0  0  0  0
   -5.5637    9.8899    0.0249 O   0  0  0  0  0  0  0  0  0  0  0  0
   -6.6355    8.0242    0.9059 N   0  0  0  0  0  0  0  0  0  0  0  0
   -6.9269    6.5861    0.8458 C   0  0  1  0  0  0  0  0  0  0  0  0
   -6.0434    5.8480    1.8782 C   0  0  0  0  0  0  0  0  0  0  0  0
   -5.7190    4.1173    1.3940 S   0  0  0  0  0  0  0  0  0  0  0  0
   -4.4781    4.4816    0.0942 C   0  0  0  0  0  0  0  0  0  0  0  0
   -3.1615    3.8619    0.4705 C   0  0  0  0  0  0  0  0  0  0  0  0
   -2.8912    2.5312    0.1323 C   0  0  0  0  0  0  0  0  0  0  0  0
   -1.7005    1.9235    0.5420 C   0  0  0  0  0  0  0  0  0  0  0  0
   -0.7661    2.6581    1.2904 C   0  0  0  0  0  0  0  0  0  0  0  0
   -0.9905    4.0179    1.5892 C   0  0  0  0  0  0  0  0  0  0  0  0
   -2.2084    4.6005    1.1961 C   0  0  0  0  0  0  0  0  0  0  0  0
   -0.0427    4.8151    2.4625 C   0  0  0  0  0  0  0  0  0  0  0  0
    1.6805    4.1859    2.5149 S   0  0  0  0  0  0  0  0  0  0  0  0
    2.2705    5.0104    0.9849 C   0  0  0  0  0  0  0  0  0  0  0  0
    3.2084    6.1983    1.2642 C   0  0  1  0  0  0  0  0  0  0  0  0
    2.4943    7.3140    1.9969 C   0  0  0  0  0  0  0  0  0  0  0  0
    2.1290    8.5140    1.3114 N   0  0  0  0  0  0  0  0  0  0  0  0
    2.1934    7.1821    3.2104 O   0  0  0  0  0  0  0  0  0  0  0  0
    4.3937    5.7655    2.0169 N   0  0  0  0  0  0  0  0  0  0  0  0
    5.5260    5.1385    1.3895 C   0  0  0  0  0  0  0  0  0  0  0  0
    5.8302    3.9601    1.7204 O   0  0  0  0  0  0  0  0  0  0  0  0
    6.3962    5.8520    0.3758 C   0  0  1  0  0  0  0  0  0  0  0  0
    5.9575    5.5450   -1.0572 C   0  0  0  0  0  0  0  0  0  0  0  0
    6.4056    7.3047    0.6042 N   0  0  0  0  0  0  0  0  0  0  0  0
    7.6040    8.0743    0.7848 C   0  0  0  0  0  0  0  0  0  0  0  0
    7.5743    9.0675    1.5609 O   0  0  0  0  0  0  0  0  0  0  0  0
    8.8811    7.7559    0.0366 C   0  0  1  0  0  0  0  0  0  0  0  0
    9.3897    9.0070   -0.6868 C   0  0  0  0  0  0  0  0  0  0  0  0
    9.9009    7.2761    0.9708 N   0  0  0  0  0  0  0  0  0  0  0  0
   10.9496    6.3519    0.6112 C   0  0  0  0  0  0  0  0  0  0  0  0
   12.0602    6.4342    1.2048 O   0  0  0  0  0  0  0  0  0  0  0  0
   10.7618    5.2919   -0.4475 C   0  0  1  0  0  0  0  0  0  0  0  0
   11.2400    5.8060   -1.8074 C   0  0  0  0  0  0  0  0  0  0  0  0
   11.4993    4.0701   -0.0915 N   0  0  0  0  0  0  0  0  0  0  0  0
   10.9782    3.1420    0.8601 C   0  0  0  0  0  0  0  0  0  0  0  0
   10.7168    3.5313    2.0320 O   0  0  0  0  0  0  0  0  0  0  0  0
   10.6966    1.7121    0.4717 C   0  0  1  0  0  0  0  0  0  0  0  0
    9.5425    1.6568   -0.5264 C   0  0  0  0  0  0  0  0  0  0  0  0
   11.8880    1.0834   -0.1088 N   0  0  0  0  0  0  0  0  0  0  0  0
   12.7046    0.1605    0.6184 C   0  0  0  0  0  0  0  0  0  0  0  0
   13.8500    0.5311    0.9972 O   0  0  0  0  0  0  0  0  0  0  0  0
   12.2662   -1.2575    0.9096 C   0  0  1  0  0  0  0  0  0  0  0  0
   11.3416   -1.3394    2.1242 C   0  0  0  0  0  0  0  0  0  0  0  0
   11.6163   -1.8643   -0.2580 N   0  0  0  0  0  0  0  0  0  0  0  0
   12.0820   -3.1099   -0.8031 C   0  0  0  0  0  0  0  0  0  0  0  0
   13.3199   -3.3314   -0.8751 O   0  0  0  0  0  0  0  0  0  0  0  0
   11.1040   -4.1744   -1.2331 C   0  0  1  0  0  0  0  0  0  0  0  0
   11.3793   -4.6040   -2.6755 C   0  0  0  0  0  0  0  0  0  0  0  0
   11.2291   -5.3283   -0.3359 N   0  0  0  0  0  0  0  0  0  0  0  0
   10.1104   -6.0496    0.2115 C   0  0  0  0  0  0  0  0  0  0  0  0
   10.2191   -6.5359    1.3705 O   0  0  0  0  0  0  0  0  0  0  0  0
    8.8923   -6.3674   -0.6199 C   0  0  1  0  0  0  0  0  0  0  0  0
    9.1803   -7.5593   -1.5359 C   0  0  0  0  0  0  0  0  0  0  0  0
    7.7483   -6.6763    0.2420 N   0  0  0  0  0  0  0  0  0  0  0  0
    6.5885   -5.8472    0.2872 C   0  0  0  0  0  0  0  0  0  0  0  0
    6.5581   -4.8725    1.0842 O   0  0  0  0  0  0  0  0  0  0  0  0
    5.4133   -6.1005   -0.6225 C   0  0  1  0  0  0  0  0  0  0  0  0
    5.5389   -5.2485   -1.8856 C   0  0  0  0  0  0  0  0  0  0  0  0
    5.3393   -7.5213   -0.9878 N   0  0  0  0  0  0  0  0  0  0  0  0
    4.2690   -8.4444   -0.7080 C   0  0  0  0  0  0  0  0  0  0  0  0
    4.4081   -9.6442   -1.0626 O   0  0  0  0  0  0  0  0  0  0  0  0
    2.9913   -8.0677    0.0164 C   0  0  1  0  0  0  0  0  0  0  0  0
    3.2490   -7.8403    1.5131 C   0  0  0  0  0  0  0  0  0  0  0  0
    2.3397   -6.9232   -0.6161 N   0  0  0  0  0  0  0  0  0  0  0  0
    0.9922   -6.5598   -0.3084 C   0  0  0  0  0  0  0  0  0  0  0  0
    0.0547   -7.0341   -1.0089 O   0  0  0  0  0  0  0  0  0  0  0  0
    0.7094   -5.5121    0.7501 C   0  0  1  0  0  0  0  0  0  0  0  0
    1.2993   -4.1748    0.2856 C   0  0  0  0  0  0  0  0  0  0  0  0
   -0.7269   -5.3870    0.9971 N   0  0  0  0  0  0  0  0  0  0  0  0
   -1.2491   -4.4084    1.8990 C   0  0  0  0  0  0  0  0  0  0  0  0
   -0.9406   -4.4689    3.1141 O   0  0  0  0  0  0  0  0  0  0  0  0
   -2.1872   -3.3294    1.4155 C   0  0  1  0  0  0  0  0  0  0  0  0
   -1.3997   -2.0148    1.2796 C   0  0  0  0  0  0  0  0  0  0  0  0
   -2.5308   -0.5802    1.2222 S   0  0  0  0  0  0  0  0  0  0  0  0
   -1.4384    0.4805    0.2176 C   0  0  0  0  0  0  0  0  0  0  0  0
   -2.7894   -3.6966    0.1270 N   0  0  0  0  0  0  0  0  0  0  0  0
   -3.6730   -4.8118   -0.0890 C   0  0  0  0  0  0  0  0  0  0  0  0
   -3.9346   -5.1458   -1.2780 O   0  0  0  0  0  0  0  0  0  0  0  0
   -4.3676   -5.5367    1.0507 C   0  0  1  0  0  0  0  0  0  0  0  0
   -5.6934   -4.8731    1.4512 C   0  0  0  0  0  0  0  0  0  0  0  0
   -4.5075   -6.9785    0.7939 N   0  0  0  0  0  0  0  0  0  0  0  0
   -5.3446   -7.6564   -0.1698 C   0  0  0  0  0  0  0  0  0  0  0  0
   -5.2466   -8.9138   -0.2640 O   0  0  0  0  0  0  0  0  0  0  0  0
   -6.3420   -6.9563   -1.0697 C   0  0  1  0  0  0  0  0  0  0  0  0
   -6.0436   -7.2713   -2.5404 C   0  0  0  0  0  0  0  0  0  0  0  0
   -7.7044   -7.3962   -0.7401 N   0  0  0  0  0  0  0  0  0  0  0  0
   -8.8737   -6.6620   -1.1528 C   0  0  0  0  0  0  0  0  0  0  0  0
   -9.8419   -7.3016   -1.6486 O   0  0  0  0  0  0  0  0  0  0  0  0
   -8.9837   -5.1610   -0.9852 C   0  0  1  0  0  0  0  0  0  0  0  0
   -8.4245   -4.4284   -2.2132 C   0  0  0  0  0  0  0  0  0  0  0  0
  -10.3918   -4.7821   -0.8328 N   0  0  0  0  0  0  0  0  0  0  0  0
  -10.8637   -3.9606    0.2463 C   0  0  0  0  0  0  0  0  0  0  0  0
  -10.3518   -4.0755    1.3924 O   0  0  0  0  0  0  0  0  0  0  0  0
  -11.9528   -2.9508   -0.0120 C   0  0  1  0  0  0  0  0  0  0  0  0
  -13.2805   -3.6245   -0.3696 C   0  0  0  0  0  0  0  0  0  0  0  0
  -12.1507   -2.0789    1.1475 N   0  0  0  0  0  0  0  0  0  0  0  0
  -11.7624   -0.7033    1.1020 C   0  0  0  0  0  0  0  0  0  0  0  0
  -10.5433   -0.4107    0.9808 O   0  0  0  0  0  0  0  0  0  0  0  0
  -12.8058    0.3802    1.1690 C   0  0  1  0  0  0  0  0  0  0  0  0
  -13.0237    0.8256    2.6197 C   0  0  0  0  0  0  0  0  0  0  0  0
  -12.4168    1.5155    0.3218 N   0  0  0  0  0  0  0  0  0  0  0  0
  -12.1750    1.3707   -1.0859 C   0  0  0  0  0  0  0  0  0  0  0  0
  -12.3740    0.2553   -1.6463 O   0  0  0  0  0  0  0  0  0  0  0  0
  -11.7727    2.5381   -1.9528 C   0  0  1  0  0  0  0  0  0  0  0  0
  -12.9959    3.0541   -2.7104 C   0  0  0  0  0  0  0  0  0  0  0  0
  -11.1557    3.6228   -1.1763 N   0  0  0  0  0  0  0  0  0  0  0  0
   -9.8264    3.5130   -0.6529 C   0  0  0  0  0  0  0  0  0  0  0  0
   -9.4888    2.4798   -0.0016 O   0  0  0  0  0  0  0  0  0  0  0  0
   -8.8658    4.6663   -0.7538 C   0  0  1  0  0  0  0  0  0  0  0  0
   -8.8096    5.1873   -2.1936 C   0  0  0  0  0  0  0  0  0  0  0  0
   -9.2684    5.7450    0.1598 N   0  0  0  0  0  0  0  0  0  0  0  0
   -8.3972    6.3697    1.1132 C   0  0  0  0  0  0  0  0  0  0  0  0
   -8.8977    6.8279    2.1776 O   0  0  0  0  0  0  0  0  0  0  0  0
   -7.4355    8.3256   -1.8351 H   0  0  0  0  0  0  0  0  0  0  0  0
   -5.8897    7.3828   -1.8001 H   0  0  0  0  0  0  0  0  0  0  0  0
   -5.8718    9.0889   -2.3189 H   0  0  0  0  0  0  0  0  0  0  0  0
   -6.7073    8.5038    1.8361 H   0  0  0  0  0  0  0  0  0  0  0  0
   -6.6805    6.1995   -0.1576 H   0  0  0  0  0  0  0  0  0  0  0  0
   -5.0654    6.3659    1.9930 H   0  0  0  0  0  0  0  0  0  0  0  0
   -6.5294    5.8575    2.8787 H   0  0  0  0  0  0  0  0  0  0  0  0
   -4.8430    4.0549   -0.8644 H   0  0  0  0  0  0  0  0  0  0  0  0
   -4.3537    5.5676   -0.0749 H   0  0  0  0  0  0  0  0  0  0  0  0
   -3.6203    1.9595   -0.4324 H   0  0  0  0  0  0  0  0  0  0  0  0
    0.1382    2.1618    1.6305 H   0  0  0  0  0  0  0  0  0  0  0  0
   -2.4435    5.6096    1.5034 H   0  0  0  0  0  0  0  0  0  0  0  0
   -0.0430    5.8781    2.1547 H   0  0  0  0  0  0  0  0  0  0  0  0
   -0.4316    4.7724    3.4977 H   0  0  0  0  0  0  0  0  0  0  0  0
    1.4234    5.3462    0.3504 H   0  0  0  0  0  0  0  0  0  0  0  0
    2.8298    4.2593    0.3823 H   0  0  0  0  0  0  0  0  0  0  0  0
    3.5318    6.5986    0.2798 H   0  0  0  0  0  0  0  0  0  0  0  0
    2.3061    8.6208    0.2864 H   0  0  0  0  0  0  0  0  0  0  0  0
    1.6976    9.3077    1.8323 H   0  0  0  0  0  0  0  0  0  0  0  0
    4.2572    5.5454    3.0278 H   0  0  0  0  0  0  0  0  0  0  0  0
    7.4256    5.4529    0.5013 H   0  0  0  0  0  0  0  0  0  0  0  0
    6.7167    5.9241   -1.7689 H   0  0  0  0  0  0  0  0  0  0  0  0
    4.9946    6.0318   -1.2985 H   0  0  0  0  0  0  0  0  0  0  0  0
    5.8570    4.4491   -1.2007 H   0  0  0  0  0  0  0  0  0  0  0  0
    5.4987    7.7939    0.7628 H   0  0  0  0  0  0  0  0  0  0  0  0
    8.6649    6.9961   -0.7382 H   0  0  0  0  0  0  0  0  0  0  0  0
    9.5941    9.8300    0.0298 H   0  0  0  0  0  0  0  0  0  0  0  0
   10.3280    8.7844   -1.2279 H   0  0  0  0  0  0  0  0  0  0  0  0
    8.6370    9.3543   -1.4258 H   0  0  0  0  0  0  0  0  0  0  0  0
   10.0565    7.8378    1.8376 H   0  0  0  0  0  0  0  0  0  0  0  0
    9.6877    5.0218   -0.5356 H   0  0  0  0  0  0  0  0  0  0  0  0
   11.1451    5.0013   -2.5656 H   0  0  0  0  0  0  0  0  0  0  0  0
   12.3066    6.1157   -1.7525 H   0  0  0  0  0  0  0  0  0  0  0  0
   10.6263    6.6637   -2.1460 H   0  0  0  0  0  0  0  0  0  0  0  0
   12.3790    3.8274   -0.6112 H   0  0  0  0  0  0  0  0  0  0  0  0
   10.3912    1.1691    1.3844 H   0  0  0  0  0  0  0  0  0  0  0  0
    9.3502    0.6045   -0.8210 H   0  0  0  0  0  0  0  0  0  0  0  0
    9.7837    2.2435   -1.4409 H   0  0  0  0  0  0  0  0  0  0  0  0
    8.6181    2.0697   -0.0684 H   0  0  0  0  0  0  0  0  0  0  0  0
   12.3097    1.5158   -0.9618 H   0  0  0  0  0  0  0  0  0  0  0  0
   13.1799   -1.8368    1.1652 H   0  0  0  0  0  0  0  0  0  0  0  0
   11.2692   -2.3969    2.4620 H   0  0  0  0  0  0  0  0  0  0  0  0
   11.7456   -0.7286    2.9620 H   0  0  0  0  0  0  0  0  0  0  0  0
   10.3148   -1.0009    1.8708 H   0  0  0  0  0  0  0  0  0  0  0  0
   10.6656   -1.5215   -0.5315 H   0  0  0  0  0  0  0  0  0  0  0  0
   10.0751   -3.7523   -1.1766 H   0  0  0  0  0  0  0  0  0  0  0  0
   12.3257   -5.1877   -2.7369 H   0  0  0  0  0  0  0  0  0  0  0  0
   10.5465   -5.2379   -3.0458 H   0  0  0  0  0  0  0  0  0  0  0  0
   11.4575   -3.7155   -3.3392 H   0  0  0  0  0  0  0  0  0  0  0  0
   12.1805   -5.5953    0.0031 H   0  0  0  0  0  0  0  0  0  0  0  0
    8.6459   -5.4914   -1.2592 H   0  0  0  0  0  0  0  0  0  0  0  0
    9.2640   -8.4975   -0.9466 H   0  0  0  0  0  0  0  0  0  0  0  0
    8.3611   -7.6735   -2.2747 H   0  0  0  0  0  0  0  0  0  0  0  0
   10.1280   -7.4076   -2.0956 H   0  0  0  0  0  0  0  0  0  0  0  0
    7.7830   -7.5089    0.8744 H   0  0  0  0  0  0  0  0  0  0  0  0
    4.5011   -5.7784   -0.0913 H   0  0  0  0  0  0  0  0  0  0  0  0
    4.6507   -5.4062   -2.5343 H   0  0  0  0  0  0  0  0  0  0  0  0
    5.5921   -4.1712   -1.6177 H   0  0  0  0  0  0  0  0  0  0  0  0
    6.4489   -5.5282   -2.4567 H   0  0  0  0  0  0  0  0  0  0  0  0
    6.1508   -7.9152   -1.5205 H   0  0  0  0  0  0  0  0  0  0  0  0
    2.2953   -8.9375   -0.0620 H   0  0  0  0  0  0  0  0  0  0  0  0
    2.2867   -7.8489    2.0639 H   0  0  0  0  0  0  0  0  0  0  0  0
    3.8721   -8.6631    1.9245 H   0  0  0  0  0  0  0  0  0  0  0  0
    3.7621   -6.8771    1.7043 H   0  0  0  0  0  0  0  0  0  0  0  0
    2.7190   -6.5571   -1.5191 H   0  0  0  0  0  0  0  0  0  0  0  0
    1.2165   -5.8063    1.6949 H   0  0  0  0  0  0  0  0  0  0  0  0
    0.7840   -3.8215   -0.6353 H   0  0  0  0  0  0  0  0  0  0  0  0
    1.1913   -3.4079    1.0828 H   0  0  0  0  0  0  0  0  0  0  0  0
    2.3855   -4.2786    0.0805 H   0  0  0  0  0  0  0  0  0  0  0  0
   -1.3106   -6.2559    0.9153 H   0  0  0  0  0  0  0  0  0  0  0  0
   -2.9812   -3.1844    2.1727 H   0  0  0  0  0  0  0  0  0  0  0  0
   -0.7809   -2.0595    0.3562 H   0  0  0  0  0  0  0  0  0  0  0  0
   -0.7129   -1.8766    2.1413 H   0  0  0  0  0  0  0  0  0  0  0  0
   -1.6411    0.2861   -0.8548 H   0  0  0  0  0  0  0  0  0  0  0  0
   -0.3729    0.2407    0.3992 H   0  0  0  0  0  0  0  0  0  0  0  0
   -2.4954   -3.1716   -0.7293 H   0  0  0  0  0  0  0  0  0  0  0  0
   -3.7083   -5.4549    1.9426 H   0  0  0  0  0  0  0  0  0  0  0  0
   -5.5206   -4.1463    2.2737 H   0  0  0  0  0  0  0  0  0  0  0  0
   -6.1395   -4.2986    0.6085 H   0  0  0  0  0  0  0  0  0  0  0  0
   -6.4256   -5.6317    1.8060 H   0  0  0  0  0  0  0  0  0  0  0  0
   -3.8990   -7.6045    1.3759 H   0  0  0  0  0  0  0  0  0  0  0  0
   -6.2657   -5.8745   -0.9258 H   0  0  0  0  0  0  0  0  0  0  0  0
   -5.0156   -6.9521   -2.8121 H   0  0  0  0  0  0  0  0  0  0  0  0
   -6.7564   -6.7350   -3.1982 H   0  0  0  0  0  0  0  0  0  0  0  0
   -6.1458   -8.3560   -2.7402 H   0  0  0  0  0  0  0  0  0  0  0  0
   -7.8467   -8.4220   -0.6327 H   0  0  0  0  0  0  0  0  0  0  0  0
   -8.4061   -4.8501   -0.0855 H   0  0  0  0  0  0  0  0  0  0  0  0
   -7.3328   -4.5619   -2.3161 H   0  0  0  0  0  0  0  0  0  0  0  0
   -8.6110   -3.3362   -2.1093 H   0  0  0  0  0  0  0  0  0  0  0  0
   -8.9208   -4.7956   -3.1380 H   0  0  0  0  0  0  0  0  0  0  0  0
  -11.0220   -4.9364   -1.6482 H   0  0  0  0  0  0  0  0  0  0  0  0
  -11.6307   -2.3415   -0.8885 H   0  0  0  0  0  0  0  0  0  0  0  0
  -13.6382   -4.2506    0.4768 H   0  0  0  0  0  0  0  0  0  0  0  0
  -13.1750   -4.2570   -1.2768 H   0  0  0  0  0  0  0  0  0  0  0  0
  -14.0431   -2.8447   -0.5877 H   0  0  0  0  0  0  0  0  0  0  0  0
  -12.7455   -2.4083    1.9418 H   0  0  0  0  0  0  0  0  0  0  0  0
  -13.7692   -0.0338    0.7895 H   0  0  0  0  0  0  0  0  0  0  0  0
  -13.8148    1.6041    2.6564 H   0  0  0  0  0  0  0  0  0  0  0  0
  -12.0848    1.2451    3.0389 H   0  0  0  0  0  0  0  0  0  0  0  0
  -13.3513   -0.0368    3.2416 H   0  0  0  0  0  0  0  0  0  0  0  0
  -12.3915    2.4750    0.7442 H   0  0  0  0  0  0  0  0  0  0  0  0
  -11.0354    2.1828   -2.7062 H   0  0  0  0  0  0  0  0  0  0  0  0
  -13.3727    2.2724   -3.4059 H   0  0  0  0  0  0  0  0  0  0  0  0
  -12.7256    3.9487   -3.3122 H   0  0  0  0  0  0  0  0  0  0  0  0
  -13.8160    3.3246   -2.0053 H   0  0  0  0  0  0  0  0  0  0  0  0
  -11.5763    4.5770   -1.2331 H   0  0  0  0  0  0  0  0  0  0  0  0
   -7.8528    4.2964   -0.4913 H   0  0  0  0  0  0  0  0  0  0  0  0
   -8.0351    5.9731   -2.2818 H   0  0  0  0  0  0  0  0  0  0  0  0
   -8.5370    4.3615   -2.8869 H   0  0  0  0  0  0  0  0  0  0  0  0
   -9.7830    5.6176   -2.5060 H   0  0  0  0  0  0  0  0  0  0  0  0
  -10.2802    6.0057    0.1922 H   0  0  0  0  0  0  0  0  0  0  0  0
  1  2  1  0
  2  3  2  0
  2  4  1  0
  4  5  1  0
  5  6  1  0
  6  7  1  0
  7  8  1  0
  8  9  1  0
  9 10  1  0
 10 11  2  0
 11 12  1  0
 12 13  2  0
 13 14  1  0
 13 15  1  0
 15 16  1  0
 16 17  1  0
 17 18  1  0
 18 19  1  0
 19 20  1  0
 19 21  2  0
 18 22  1  0
 22 23  1  0
 23 24  2  0
 23 25  1  0
 25 26  1  0
 25 27  1  0
 27 28  1  0
 28 29  2  0
 28 30  1  0
 30 31  1  0
 30 32  1  0
 32 33  1  0
 33 34  2  0
 33 35  1  0
 35 36  1  0
 35 37  1  0
 37 38  1  0
 38 39  2  0
 38 40  1  0
 40 41  1  0
 40 42  1  0
 42 43  1  0
 43 44  2  0
 43 45  1  0
 45 46  1  0
 45 47  1  0
 47 48  1  0
 48 49  2  0
 48 50  1  0
 50 51  1  0
 50 52  1  0
 52 53  1  0
 53 54  2  0
 53 55  1  0
 55 56  1  0
 55 57  1  0
 57 58  1  0
 58 59  2  0
 58 60  1  0
 60 61  1  0
 60 62  1  0
 62 63  1  0
 63 64  2  0
 63 65  1  0
 65 66  1  0
 65 67  1  0
 67 68  1  0
 68 69  2  0
 68 70  1  0
 70 71  1  0
 70 72  1  0
 72 73  1  0
 73 74  2  0
 73 75  1  0
 75 76  1  0
 76 77  1  0
 77 78  1  0
 75 79  1  0
 79 80  1  0
 80 81  2  0
 80 82  1  0
 82 83  1  0
 82 84  1  0
 84 85  1  0
 85 86  2  0
 85 87  1  0
 87 88  1  0
 87 89  1  0
 89 90  1  0
 90 91  2  0
 90 92  1  0
 92 93  1  0
 92 94  1  0
 94 95  1  0
 95 96  2  0
 95 97  1  0
 97 98  1  0
 97 99  1  0
 99100  1  0
100101  2  0
100102  1  0
102103  1  0
102104  1  0
104105  1  0
105106  2  0
105107  1  0
107108  1  0
107109  1  0
109110  1  0
110111  2  0
110112  1  0
112113  1  0
112114  1  0
114115  1  0
115116  2  0
115  5  1  0
 14  9  2  0
 78 11  1  0
  1117  1  0
  1118  1  0
  1119  1  0
  4120  1  0
  5121  1  6
  6122  1  0
  6123  1  0
  8124  1  0
  8125  1  0
 10126  1  0
 12127  1  0
 14128  1  0
 15129  1  0
 15130  1  0
 17131  1  0
 17132  1  0
 18133  1  6
 20134  1  0
 20135  1  0
 22136  1  0
 25137  1  6
 26138  1  0
 26139  1  0
 26140  1  0
 27141  1  0
 30142  1  6
 31143  1  0
 31144  1  0
 31145  1  0
 32146  1  0
 35147  1  6
 36148  1  0
 36149  1  0
 36150  1  0
 37151  1  0
 40152  1  1
 41153  1  0
 41154  1  0
 41155  1  0
 42156  1  0
 45157  1  1
 46158  1  0
 46159  1  0
 46160  1  0
 47161  1  0
 50162  1  6
 51163  1  0
 51164  1  0
 51165  1  0
 52166  1  0
 55167  1  6
 56168  1  0
 56169  1  0
 56170  1  0
 57171  1  0
 60172  1  1
 61173  1  0
 61174  1  0
 61175  1  0
 62176  1  0
 65177  1  1
 66178  1  0
 66179  1  0
 66180  1  0
 67181  1  0
 70182  1  1
 71183  1  0
 71184  1  0
 71185  1  0
 72186  1  0
 75187  1  1
 76188  1  0
 76189  1  0
 78190  1  0
 78191  1  0
 79192  1  0
 82193  1  1
 83194  1  0
 83195  1  0
 83196  1  0
 84197  1  0
 87198  1  6
 88199  1  0
 88200  1  0
 88201  1  0
 89202  1  0
 92203  1  1
 93204  1  0
 93205  1  0
 93206  1  0
 94207  1  0
 97208  1  6
 98209  1  0
 98210  1  0
 98211  1  0
 99212  1  0
102213  1  6
103214  1  0
103215  1  0
103216  1  0
104217  1  0
107218  1  6
108219  1  0
108220  1  0
108221  1  0
109222  1  0
112223  1  1
113224  1  0
113225  1  0
113226  1  0
114227  1  0
M  END
