
     RDKit          3D

157159  0  0  0  0  0  0  0  0999 V2000
    3.0498   -8.1628   -3.4859 C   0  0  0  0  0  0  0  0  0  0  0  0
    1.6923   -7.8984   -2.8978 C   0  0  0  0  0  0  0  0  0  0  0  0
    0.7149   -8.5517   -3.3506 O   0  0  0  0  0  0  0  0  0  0  0  0
    1.4570   -6.9177   -1.8687 N   0  0  0  0  0  0  0  0  0  0  0  0
    2.5194   -6.1507   -1.2026 C   0  0  1  0  0  0  0  0  0  0  0  0
    1.9233   -5.0528   -0.3001 C   0  0  0  0  0  0  0  0  0  0  0  0
    0.9532   -5.7513    1.0897 S   0  0  0  0  0  0  0  0  0  0  0  0
    0.6896   -4.1755    1.9846 C   0  0  0  0  0  0  0  0  0  0  0  0
   -0.6480   -3.5861    1.6299 C   0  0  0  0  0  0  0  0  0  0  0  0
   -1.8299   -4.2578    1.9938 C   0  0  0  0  0  0  0  0  0  0  0  0
   -3.0854   -3.6743    1.7648 C   0  0  0  0  0  0  0  0  0  0  0  0
   -3.1545   -2.4050    1.1732 C   0  0  0  0  0  0  0  0  0  0  0  0
   -1.9870   -1.7280    0.7949 C   0  0  0  0  0  0  0  0  0  0  0  0
   -0.7349   -2.3204    1.0282 C   0  0  0  0  0  0  0  0  0  0  0  0
   -2.0815   -0.3387    0.2295 C   0  0  0  0  0  0  0  0  0  0  0  0
   -2.0259    0.8875    1.5956 S   0  0  0  0  0  0  0  0  0  0  0  0
   -1.6234    2.3411    0.5577 C   0  0  0  0  0  0  0  0  0  0  0  0
   -2.8135    2.8357   -0.2963 C   0  0  2  0  0  0  0  0  0  0  0  0
   -2.2958    3.6878   -1.3673 N   0  0  0  0  0  0  0  0  0  0  0  0
   -1.7263    4.9726   -1.0865 C   0  0  0  0  0  0  0  0  0  0  0  0
   -2.4516    5.8819   -0.6002 O   0  0  0  0  0  0  0  0  0  0  0  0
   -0.2702    5.2323   -1.3748 C   0  0  1  0  0  0  0  0  0  0  0  0
   -0.0389    5.4371   -2.8688 C   0  0  0  0  0  0  0  0  0  0  0  0
    0.1868    6.4077   -0.6321 N   0  0  0  0  0  0  0  0  0  0  0  0
    0.7826    6.2792    0.6634 C   0  0  0  0  0  0  0  0  0  0  0  0
    0.1188    6.6165    1.6835 O   0  0  0  0  0  0  0  0  0  0  0  0
    2.2332    5.8996    0.8051 C   0  0  1  0  0  0  0  0  0  0  0  0
    3.0222    7.1412    1.2492 C   0  0  0  0  0  0  0  0  0  0  0  0
    2.3835    4.7932    1.7712 N   0  0  0  0  0  0  0  0  0  0  0  0
    3.5801    4.0144    1.9760 C   0  0  0  0  0  0  0  0  0  0  0  0
    3.5462    3.0749    2.8167 O   0  0  0  0  0  0  0  0  0  0  0  0
    4.8838    4.2993    1.2655 C   0  0  1  0  0  0  0  0  0  0  0  0
    5.8445    5.0437    2.2016 C   0  0  0  0  0  0  0  0  0  0  0  0
    5.5017    3.0475    0.8277 N   0  0  0  0  0  0  0  0  0  0  0  0
    5.4529    2.6527   -0.5445 C   0  0  0  0  0  0  0  0  0  0  0  0
    4.3403    2.3696   -1.0672 O   0  0  0  0  0  0  0  0  0  0  0  0
    6.6952    2.6497   -1.3976 C   0  0  1  0  0  0  0  0  0  0  0  0
    6.6120    3.7869   -2.4215 C   0  0  0  0  0  0  0  0  0  0  0  0
    7.8984    2.8176   -0.5731 N   0  0  0  0  0  0  0  0  0  0  0  0
    8.5970    1.7514    0.0925 C   0  0  0  0  0  0  0  0  0  0  0  0
    9.5822    2.0397    0.8248 O   0  0  0  0  0  0  0  0  0  0  0  0
    8.2502    0.2939   -0.1188 C   0  0  1  0  0  0  0  0  0  0  0  0
    9.0822   -0.2529   -1.2849 C   0  0  0  0  0  0  0  0  0  0  0  0
    8.4867   -0.4719    1.1085 N   0  0  0  0  0  0  0  0  0  0  0  0
    8.3505   -1.8950    1.1280 C   0  0  0  0  0  0  0  0  0  0  0  0
    9.3245   -2.6102    0.7725 O   0  0  0  0  0  0  0  0  0  0  0  0
    7.0699   -2.5668    1.5705 C   0  0  1  0  0  0  0  0  0  0  0  0
    5.9917   -1.5730    2.0175 C   0  0  0  0  0  0  0  0  0  0  0  0
    6.5585   -3.3954    0.4750 N   0  0  0  0  0  0  0  0  0  0  0  0
    5.8142   -4.6006    0.7099 C   0  0  0  0  0  0  0  0  0  0  0  0
    5.3622   -4.8406    1.8595 O   0  0  0  0  0  0  0  0  0  0  0  0
    5.5039   -5.5237   -0.4441 C   0  0  1  0  0  0  0  0  0  0  0  0
    6.7999   -6.0003   -1.1093 C   0  0  0  0  0  0  0  0  0  0  0  0
    4.7498   -6.6905    0.0248 N   0  0  0  0  0  0  0  0  0  0  0  0
    3.4240   -7.0695   -0.3970 C   0  0  0  0  0  0  0  0  0  0  0  0
    2.9764   -8.1893   -0.0253 O   0  0  0  0  0  0  0  0  0  0  0  0
   -3.8771    3.5645    0.5110 C   0  0  0  0  0  0  0  0  0  0  0  0
   -3.6891    3.7755    1.7426 O   0  0  0  0  0  0  0  0  0  0  0  0
   -5.0805    4.0735   -0.0927 N   0  0  0  0  0  0  0  0  0  0  0  0
   -5.5398    3.7884   -1.4605 C   0  0  2  0  0  0  0  0  0  0  0  0
   -5.5076    5.0856   -2.2737 C   0  0  0  0  0  0  0  0  0  0  0  0
   -6.9355    3.2036   -1.4508 C   0  0  0  0  0  0  0  0  0  0  0  0
   -7.5744    3.1235   -2.5406 O   0  0  0  0  0  0  0  0  0  0  0  0
   -7.5232    2.7022   -0.2400 N   0  0  0  0  0  0  0  0  0  0  0  0
   -8.9682    2.4901   -0.0985 C   0  0  2  0  0  0  0  0  0  0  0  0
   -9.7272    3.8191   -0.2099 C   0  0  0  0  0  0  0  0  0  0  0  0
   -9.2581    1.8404    1.2271 C   0  0  0  0  0  0  0  0  0  0  0  0
   -8.9903    2.4495    2.2959 O   0  0  0  0  0  0  0  0  0  0  0  0
   -9.8166    0.5213    1.2865 N   0  0  0  0  0  0  0  0  0  0  0  0
   -9.0372   -0.6778    1.6216 C   0  0  2  0  0  0  0  0  0  0  0  0
   -7.7946   -0.3610    2.4736 C   0  0  0  0  0  0  0  0  0  0  0  0
   -8.6243   -1.3900    0.3634 C   0  0  0  0  0  0  0  0  0  0  0  0
   -8.0482   -0.7510   -0.5599 O   0  0  0  0  0  0  0  0  0  0  0  0
   -8.8514   -2.8037    0.2201 N   0  0  0  0  0  0  0  0  0  0  0  0
   -7.7593   -3.7435   -0.0805 C   0  0  1  0  0  0  0  0  0  0  0  0
   -7.2131   -3.5185   -1.4712 C   0  0  0  0  0  0  0  0  0  0  0  0
   -7.6448   -4.3375   -2.5605 N   0  0  0  0  0  0  0  0  0  0  0  0
   -6.3253   -2.6463   -1.6739 O   0  0  0  0  0  0  0  0  0  0  0  0
   -6.6705   -3.6338    1.0027 C   0  0  0  0  0  0  0  0  0  0  0  0
   -5.3545   -4.8923    0.7897 S   0  0  0  0  0  0  0  0  0  0  0  0
   -4.3497   -4.3560    2.2263 C   0  0  0  0  0  0  0  0  0  0  0  0
    3.0034   -8.0285   -4.5889 H   0  0  0  0  0  0  0  0  0  0  0  0
    3.3484   -9.2101   -3.2700 H   0  0  0  0  0  0  0  0  0  0  0  0
    3.8334   -7.4843   -3.0978 H   0  0  0  0  0  0  0  0  0  0  0  0
    0.4632   -6.7471   -1.5966 H   0  0  0  0  0  0  0  0  0  0  0  0
    3.0955   -5.6422   -1.9994 H   0  0  0  0  0  0  0  0  0  0  0  0
    2.7571   -4.4358    0.1004 H   0  0  0  0  0  0  0  0  0  0  0  0
    1.2682   -4.3859   -0.8986 H   0  0  0  0  0  0  0  0  0  0  0  0
    1.5148   -3.4634    1.7866 H   0  0  0  0  0  0  0  0  0  0  0  0
    0.7119   -4.3900    3.0767 H   0  0  0  0  0  0  0  0  0  0  0  0
   -1.7573   -5.2226    2.4859 H   0  0  0  0  0  0  0  0  0  0  0  0
   -4.1137   -1.9304    1.0161 H   0  0  0  0  0  0  0  0  0  0  0  0
    0.1676   -1.7826    0.7631 H   0  0  0  0  0  0  0  0  0  0  0  0
   -3.0485   -0.2277   -0.3110 H   0  0  0  0  0  0  0  0  0  0  0  0
   -1.2566   -0.1592   -0.4982 H   0  0  0  0  0  0  0  0  0  0  0  0
   -0.7627    2.0856   -0.0970 H   0  0  0  0  0  0  0  0  0  0  0  0
   -1.2694    3.1592    1.2183 H   0  0  0  0  0  0  0  0  0  0  0  0
   -3.2904    1.9536   -0.7595 H   0  0  0  0  0  0  0  0  0  0  0  0
   -1.9517    3.1924   -2.2194 H   0  0  0  0  0  0  0  0  0  0  0  0
    0.3112    4.3383   -1.0549 H   0  0  0  0  0  0  0  0  0  0  0  0
    1.0476    5.5748   -3.0583 H   0  0  0  0  0  0  0  0  0  0  0  0
   -0.5834    6.3335   -3.2325 H   0  0  0  0  0  0  0  0  0  0  0  0
   -0.3761    4.5476   -3.4446 H   0  0  0  0  0  0  0  0  0  0  0  0
   -0.2131    7.3368   -0.8878 H   0  0  0  0  0  0  0  0  0  0  0  0
    2.5929    5.5615   -0.1925 H   0  0  0  0  0  0  0  0  0  0  0  0
    2.6507    8.0539    0.7319 H   0  0  0  0  0  0  0  0  0  0  0  0
    2.9244    7.2960    2.3429 H   0  0  0  0  0  0  0  0  0  0  0  0
    4.0913    7.0474    0.9898 H   0  0  0  0  0  0  0  0  0  0  0  0
    1.5507    4.5123    2.3355 H   0  0  0  0  0  0  0  0  0  0  0  0
    4.7092    4.9428    0.3776 H   0  0  0  0  0  0  0  0  0  0  0  0
    6.7658    5.3185    1.6495 H   0  0  0  0  0  0  0  0  0  0  0  0
    6.1245    4.4039    3.0635 H   0  0  0  0  0  0  0  0  0  0  0  0
    5.3803    5.9726    2.5946 H   0  0  0  0  0  0  0  0  0  0  0  0
    6.1266    2.5213    1.4759 H   0  0  0  0  0  0  0  0  0  0  0  0
    6.7499    1.6966   -1.9712 H   0  0  0  0  0  0  0  0  0  0  0  0
    7.5268    3.7907   -3.0534 H   0  0  0  0  0  0  0  0  0  0  0  0
    6.5162    4.7660   -1.9101 H   0  0  0  0  0  0  0  0  0  0  0  0
    5.7282    3.6424   -3.0853 H   0  0  0  0  0  0  0  0  0  0  0  0
    8.2162    3.7906   -0.3642 H   0  0  0  0  0  0  0  0  0  0  0  0
    7.1744    0.1928   -0.3724 H   0  0  0  0  0  0  0  0  0  0  0  0
    8.7627   -1.2867   -1.5356 H   0  0  0  0  0  0  0  0  0  0  0  0
   10.1632   -0.2627   -1.0220 H   0  0  0  0  0  0  0  0  0  0  0  0
    8.9378    0.3733   -2.1938 H   0  0  0  0  0  0  0  0  0  0  0  0
    8.3960    0.0191    2.0287 H   0  0  0  0  0  0  0  0  0  0  0  0
    7.3255   -3.2164    2.4364 H   0  0  0  0  0  0  0  0  0  0  0  0
    5.7119   -0.8930    1.1896 H   0  0  0  0  0  0  0  0  0  0  0  0
    6.3575   -0.9723    2.8780 H   0  0  0  0  0  0  0  0  0  0  0  0
    5.0877   -2.1285    2.3478 H   0  0  0  0  0  0  0  0  0  0  0  0
    6.7377   -3.0961   -0.5136 H   0  0  0  0  0  0  0  0  0  0  0  0
    4.9346   -4.9361   -1.1899 H   0  0  0  0  0  0  0  0  0  0  0  0
    6.5628   -6.6999   -1.9370 H   0  0  0  0  0  0  0  0  0  0  0  0
    7.3672   -5.1418   -1.5312 H   0  0  0  0  0  0  0  0  0  0  0  0
    7.4385   -6.5212   -0.3707 H   0  0  0  0  0  0  0  0  0  0  0  0
    5.2407   -7.3491    0.6786 H   0  0  0  0  0  0  0  0  0  0  0  0
   -5.6779    4.7046    0.4891 H   0  0  0  0  0  0  0  0  0  0  0  0
   -4.8726    3.0558   -1.9628 H   0  0  0  0  0  0  0  0  0  0  0  0
   -6.1639    5.8519   -1.8010 H   0  0  0  0  0  0  0  0  0  0  0  0
   -5.8462    4.9130   -3.3173 H   0  0  0  0  0  0  0  0  0  0  0  0
   -4.4732    5.4897   -2.3156 H   0  0  0  0  0  0  0  0  0  0  0  0
   -6.8823    2.3963    0.5316 H   0  0  0  0  0  0  0  0  0  0  0  0
   -9.3197    1.8145   -0.9121 H   0  0  0  0  0  0  0  0  0  0  0  0
   -9.6048    4.2522   -1.2232 H   0  0  0  0  0  0  0  0  0  0  0  0
  -10.8142    3.6583   -0.0339 H   0  0  0  0  0  0  0  0  0  0  0  0
   -9.3469    4.5499    0.5373 H   0  0  0  0  0  0  0  0  0  0  0  0
  -10.8049    0.3878    0.9551 H   0  0  0  0  0  0  0  0  0  0  0  0
   -9.6813   -1.3590    2.2282 H   0  0  0  0  0  0  0  0  0  0  0  0
   -7.2853   -1.3024    2.7681 H   0  0  0  0  0  0  0  0  0  0  0  0
   -7.0716    0.2722    1.9158 H   0  0  0  0  0  0  0  0  0  0  0  0
   -8.1049    0.1596    3.4057 H   0  0  0  0  0  0  0  0  0  0  0  0
   -9.6949   -3.2107    0.6772 H   0  0  0  0  0  0  0  0  0  0  0  0
   -8.1708   -4.7746   -0.0308 H   0  0  0  0  0  0  0  0  0  0  0  0
   -8.3915   -5.0580   -2.4229 H   0  0  0  0  0  0  0  0  0  0  0  0
   -7.2375   -4.2095   -3.5132 H   0  0  0  0  0  0  0  0  0  0  0  0
   -6.2179   -2.6242    0.9749 H   0  0  0  0  0  0  0  0  0  0  0  0
   -7.1430   -3.7746    1.9958 H   0  0  0  0  0  0  0  0  0  0  0  0
   -4.9157   -3.6716    2.8966 H   0  0  0  0  0  0  0  0  0  0  0  0
   -4.1076   -5.2604    2.8290 H   0  0  0  0  0  0  0  0  0  0  0  0
  1  2  1  0
  2  3  2  0
  2  4  1  0
  4  5  1  0
  5  6  1  0
  6  7  1  0
  7  8  1  0
  8  9  1  0
  9 10  1  0
 10 11  2  0
 11 12  1  0
 12 13  2  0
 13 14  1  0
 13 15  1  0
 15 16  1  0
 16 17  1  0
 17 18  1  0
 18 19  1  0
 19 20  1  0
 20 21  2  0
 20 22  1  0
 22 23  1  0
 22 24  1  0
 24 25  1  0
 25 26  2  0
 25 27  1  0
 27 28  1  0
 27 29  1  0
 29 30  1  0
 30 31  2  0
 30 32  1  0
 32 33  1  0
 32 34  1  0
 34 35  1  0
 35 36  2  0
 35 37  1  0
 37 38  1  0
 37 39  1  0
 39 40  1  0
 40 41  2  0
 40 42  1  0
 42 43  1  0
 42 44  1  0
 44 45  1  0
 45 46  2  0
 45 47  1  0
 47 48  1  0
 47 49  1  0
 49 50  1  0
 50 51  2  0
 50 52  1  0
 52 53  1  0
 52 54  1  0
 54 55  1  0
 55 56  2  0
 18 57  1  0
 57 58  2  0
 57 59  1  0
 59 60  1  0
 60 61  1  0
 60 62  1  0
 62 63  2  0
 62 64  1  0
 64 65  1  0
 65 66  1  0
 65 67  1  0
 67 68  2  0
 67 69  1  0
 69 70  1  0
 70 71  1  0
 70 72  1  0
 72 73  2  0
 72 74  1  0
 74 75  1  0
 75 76  1  0
 76 77  1  0
 76 78  2  0
 75 79  1  0
 79 80  1  0
 80 81  1  0
 55  5  1  0
 14  9  2  0
 81 11  1  0
  1 82  1  0
  1 83  1  0
  1 84  1  0
  4 85  1  0
  5 86  1  6
  6 87  1  0
  6 88  1  0
  8 89  1  0
  8 90  1  0
 10 91  1  0
 12 92  1  0
 14 93  1  0
 15 94  1  0
 15 95  1  0
 17 96  1  0
 17 97  1  0
 18 98  1  6
 19 99  1  0
 22100  1  1
 23101  1  0
 23102  1  0
 23103  1  0
 24104  1  0
 27105  1  6
 28106  1  0
 28107  1  0
 28108  1  0
 29109  1  0
 32110  1  6
 33111  1  0
 33112  1  0
 33113  1  0
 34114  1  0
 37115  1  6
 38116  1  0
 38117  1  0
 38118  1  0
 39119  1  0
 42120  1  6
 43121  1  0
 43122  1  0
 43123  1  0
 44124  1  0
 47125  1  1
 48126  1  0
 48127  1  0
 48128  1  0
 49129  1  0
 52130  1  6
 53131  1  0
 53132  1  0
 53133  1  0
 54134  1  0
 59135  1  0
 60136  1  6
 61137  1  0
 61138  1  0
 61139  1  0
 64140  1  0
 65141  1  6
 66142  1  0
 66143  1  0
 66144  1  0
 69145  1  0
 70146  1  1
 71147  1  0
 71148  1  0
 71149  1  0
 74150  1  0
 75151  1  6
 77152  1  0
 77153  1  0
 79154  1  0
 79155  1  0
 81156  1  0
 81157  1  0
M  END
