
     RDKit          3D

177179  0  0  0  0  0  0  0  0999 V2000
    3.2774    8.2708   -0.5889 C   0  0  0  0  0  0  0  0  0  0  0  0
    3.3717    7.3048   -1.7350 C   0  0  0  0  0  0  0  0  0  0  0  0
    3.3512    7.7515   -2.9135 O   0  0  0  0  0  0  0  0  0  0  0  0
    3.4825    5.8889   -1.5282 N   0  0  0  0  0  0  0  0  0  0  0  0
    3.2861    5.2379   -0.2285 C   0  0  1  0  0  0  0  0  0  0  0  0
    1.7861    5.0466    0.0443 C   0  0  0  0  0  0  0  0  0  0  0  0
    1.5075    4.5345    1.7746 S   0  0  0  0  0  0  0  0  0  0  0  0
   -0.2401    5.0587    1.8787 C   0  0  0  0  0  0  0  0  0  0  0  0
   -1.1519    4.0253    1.2812 C   0  0  0  0  0  0  0  0  0  0  0  0
   -1.8098    4.2630    0.0681 C   0  0  0  0  0  0  0  0  0  0  0  0
   -2.7379    3.3396   -0.4337 C   0  0  0  0  0  0  0  0  0  0  0  0
   -3.0343    2.1884    0.3088 C   0  0  0  0  0  0  0  0  0  0  0  0
   -2.3854    1.9356    1.5236 C   0  0  0  0  0  0  0  0  0  0  0  0
   -1.4172    2.8438    1.9870 C   0  0  0  0  0  0  0  0  0  0  0  0
   -2.6948    0.6856    2.3017 C   0  0  0  0  0  0  0  0  0  0  0  0
   -1.5868   -0.6637    1.7661 S   0  0  0  0  0  0  0  0  0  0  0  0
   -2.7901   -1.4779    0.6409 C   0  0  0  0  0  0  0  0  0  0  0  0
   -2.1039   -2.6129   -0.1266 C   0  0  2  0  0  0  0  0  0  0  0  0
   -1.0421   -2.0555   -0.9739 N   0  0  0  0  0  0  0  0  0  0  0  0
    0.1954   -2.7008   -1.3193 C   0  0  0  0  0  0  0  0  0  0  0  0
    0.9981   -2.0927   -2.0831 O   0  0  0  0  0  0  0  0  0  0  0  0
    0.5436   -4.1066   -0.8948 C   0  0  1  0  0  0  0  0  0  0  0  0
    0.1327   -5.1064   -1.9726 C   0  0  0  0  0  0  0  0  0  0  0  0
    1.9790   -4.2162   -0.6235 N   0  0  0  0  0  0  0  0  0  0  0  0
    2.4752   -3.9611    0.6969 C   0  0  0  0  0  0  0  0  0  0  0  0
    2.6661   -2.7664    1.0543 O   0  0  0  0  0  0  0  0  0  0  0  0
    2.7533   -5.0886    1.6722 C   0  0  1  0  0  0  0  0  0  0  0  0
    2.1278   -6.4086    1.2051 C   0  0  0  0  0  0  0  0  0  0  0  0
    4.1901   -5.3030    1.9149 N   0  0  0  0  0  0  0  0  0  0  0  0
    5.2599   -4.5185    1.3645 C   0  0  0  0  0  0  0  0  0  0  0  0
    5.2917   -3.2704    1.5594 O   0  0  0  0  0  0  0  0  0  0  0  0
    6.3806   -5.1523    0.5827 C   0  0  1  0  0  0  0  0  0  0  0  0
    6.4091   -6.6793    0.7225 C   0  0  0  0  0  0  0  0  0  0  0  0
    6.2354   -4.7957   -0.8328 N   0  0  0  0  0  0  0  0  0  0  0  0
    7.2210   -4.1309   -1.6490 C   0  0  0  0  0  0  0  0  0  0  0  0
    6.9500   -3.9240   -2.8599 O   0  0  0  0  0  0  0  0  0  0  0  0
    8.5788   -3.7259   -1.1218 C   0  0  1  0  0  0  0  0  0  0  0  0
    9.4920   -4.9472   -1.0184 C   0  0  0  0  0  0  0  0  0  0  0  0
    9.1974   -2.7380   -2.0158 N   0  0  0  0  0  0  0  0  0  0  0  0
    9.6523   -1.4362   -1.6221 C   0  0  0  0  0  0  0  0  0  0  0  0
   10.5667   -0.8794   -2.2964 O   0  0  0  0  0  0  0  0  0  0  0  0
    9.1125   -0.7265   -0.3978 C   0  0  1  0  0  0  0  0  0  0  0  0
   10.0242   -1.0454    0.7938 C   0  0  0  0  0  0  0  0  0  0  0  0
    9.0707    0.7253   -0.6368 N   0  0  0  0  0  0  0  0  0  0  0  0
    8.8138    1.7048    0.3866 C   0  0  0  0  0  0  0  0  0  0  0  0
    8.2584    1.3688    1.4686 O   0  0  0  0  0  0  0  0  0  0  0  0
    9.2010    3.1371    0.1692 C   0  0  1  0  0  0  0  0  0  0  0  0
   10.6754    3.2459   -0.2403 C   0  0  0  0  0  0  0  0  0  0  0  0
    8.3426    3.7351   -0.8524 N   0  0  0  0  0  0  0  0  0  0  0  0
    7.0434    4.3068   -0.6173 C   0  0  0  0  0  0  0  0  0  0  0  0
    6.4441    4.8403   -1.5908 O   0  0  0  0  0  0  0  0  0  0  0  0
    6.3802    4.3280    0.7506 C   0  0  1  0  0  0  0  0  0  0  0  0
    6.2733    5.7639    1.2709 C   0  0  0  0  0  0  0  0  0  0  0  0
    5.0768    3.6435    0.7261 N   0  0  0  0  0  0  0  0  0  0  0  0
    4.0149    3.9160   -0.2030 C   0  0  0  0  0  0  0  0  0  0  0  0
    3.6244    2.9930   -0.9660 O   0  0  0  0  0  0  0  0  0  0  0  0
   -3.1067   -3.3310   -1.0005 C   0  0  0  0  0  0  0  0  0  0  0  0
   -3.6111   -2.6991   -1.9709 O   0  0  0  0  0  0  0  0  0  0  0  0
   -3.4955   -4.7027   -0.7957 N   0  0  0  0  0  0  0  0  0  0  0  0
   -3.0457   -5.5562    0.3095 C   0  0  2  0  0  0  0  0  0  0  0  0
   -3.2774   -7.0301   -0.0134 C   0  0  0  0  0  0  0  0  0  0  0  0
   -3.7007   -5.1742    1.6197 C   0  0  0  0  0  0  0  0  0  0  0  0
   -3.1425   -5.5150    2.6966 O   0  0  0  0  0  0  0  0  0  0  0  0
   -4.9032   -4.3834    1.6852 N   0  0  0  0  0  0  0  0  0  0  0  0
   -6.2479   -4.9090    1.4163 C   0  0  2  0  0  0  0  0  0  0  0  0
   -6.4616   -6.2678    2.1050 C   0  0  0  0  0  0  0  0  0  0  0  0
   -6.5238   -4.9586   -0.0739 C   0  0  0  0  0  0  0  0  0  0  0  0
   -6.6041   -6.0717   -0.6610 O   0  0  0  0  0  0  0  0  0  0  0  0
   -6.7049   -3.7643   -0.8522 N   0  0  0  0  0  0  0  0  0  0  0  0
   -6.9776   -2.4361   -0.2782 C   0  0  2  0  0  0  0  0  0  0  0  0
   -8.4594   -2.3491    0.1240 C   0  0  0  0  0  0  0  0  0  0  0  0
   -6.6559   -1.3274   -1.2544 C   0  0  0  0  0  0  0  0  0  0  0  0
   -6.2492   -1.5881   -2.4211 O   0  0  0  0  0  0  0  0  0  0  0  0
   -6.8397    0.0390   -0.8757 N   0  0  0  0  0  0  0  0  0  0  0  0
   -7.9105    0.8513   -1.4647 C   0  0  2  0  0  0  0  0  0  0  0  0
   -7.3688    1.6000   -2.6853 C   0  0  0  0  0  0  0  0  0  0  0  0
   -8.4919    1.7668   -0.4063 C   0  0  0  0  0  0  0  0  0  0  0  0
   -8.6179    1.3167    0.7665 O   0  0  0  0  0  0  0  0  0  0  0  0
   -8.9756    3.0898   -0.7054 N   0  0  0  0  0  0  0  0  0  0  0  0
   -9.6891    3.8884    0.2969 C   0  0  2  0  0  0  0  0  0  0  0  0
  -10.2972    5.1586   -0.3139 C   0  0  0  0  0  0  0  0  0  0  0  0
   -8.7992    4.2079    1.4772 C   0  0  0  0  0  0  0  0  0  0  0  0
   -9.2387    3.9346    2.6225 O   0  0  0  0  0  0  0  0  0  0  0  0
   -7.4778    4.7783    1.3715 N   0  0  0  0  0  0  0  0  0  0  0  0
   -6.8119    5.2497    0.1542 C   0  0  1  0  0  0  0  0  0  0  0  0
   -6.4760    6.7083    0.3231 C   0  0  0  0  0  0  0  0  0  0  0  0
   -5.5441    7.1451    1.3123 N   0  0  0  0  0  0  0  0  0  0  0  0
   -7.0292    7.5618   -0.4144 O   0  0  0  0  0  0  0  0  0  0  0  0
   -5.5643    4.3961   -0.1238 C   0  0  0  0  0  0  0  0  0  0  0  0
   -4.6258    5.0299   -1.5646 S   0  0  0  0  0  0  0  0  0  0  0  0
   -3.4746    3.6147   -1.7169 C   0  0  0  0  0  0  0  0  0  0  0  0
    4.1887    8.2060    0.0344 H   0  0  0  0  0  0  0  0  0  0  0  0
    3.1928    9.3111   -0.9660 H   0  0  0  0  0  0  0  0  0  0  0  0
    2.3870    8.0544    0.0319 H   0  0  0  0  0  0  0  0  0  0  0  0
    3.5818    5.2884   -2.3755 H   0  0  0  0  0  0  0  0  0  0  0  0
    3.6799    5.8818    0.5753 H   0  0  0  0  0  0  0  0  0  0  0  0
    1.3487    4.2857   -0.6360 H   0  0  0  0  0  0  0  0  0  0  0  0
    1.2577    6.0067   -0.1542 H   0  0  0  0  0  0  0  0  0  0  0  0
   -0.3769    6.0505    1.3987 H   0  0  0  0  0  0  0  0  0  0  0  0
   -0.4973    5.1891    2.9454 H   0  0  0  0  0  0  0  0  0  0  0  0
   -1.6211    5.1852   -0.4783 H   0  0  0  0  0  0  0  0  0  0  0  0
   -3.7824    1.4948   -0.0533 H   0  0  0  0  0  0  0  0  0  0  0  0
   -0.9008    2.6432    2.9214 H   0  0  0  0  0  0  0  0  0  0  0  0
   -2.5164    0.8611    3.3854 H   0  0  0  0  0  0  0  0  0  0  0  0
   -3.7657    0.4002    2.2019 H   0  0  0  0  0  0  0  0  0  0  0  0
   -3.2080   -0.7399   -0.0729 H   0  0  0  0  0  0  0  0  0  0  0  0
   -3.6275   -1.8787    1.2511 H   0  0  0  0  0  0  0  0  0  0  0  0
   -1.6826   -3.2732    0.6446 H   0  0  0  0  0  0  0  0  0  0  0  0
   -1.2253   -1.1394   -1.4365 H   0  0  0  0  0  0  0  0  0  0  0  0
    0.0118   -4.3806    0.0430 H   0  0  0  0  0  0  0  0  0  0  0  0
    0.6236   -4.8577   -2.9417 H   0  0  0  0  0  0  0  0  0  0  0  0
   -0.9676   -5.0823   -2.1170 H   0  0  0  0  0  0  0  0  0  0  0  0
    0.4298   -6.1408   -1.6703 H   0  0  0  0  0  0  0  0  0  0  0  0
    2.6451   -4.1490   -1.4222 H   0  0  0  0  0  0  0  0  0  0  0  0
    2.2752   -4.8156    2.6325 H   0  0  0  0  0  0  0  0  0  0  0  0
    2.3138   -7.1991    1.9706 H   0  0  0  0  0  0  0  0  0  0  0  0
    2.5856   -6.7380    0.2420 H   0  0  0  0  0  0  0  0  0  0  0  0
    1.0361   -6.3041    1.0807 H   0  0  0  0  0  0  0  0  0  0  0  0
    4.4559   -6.0982    2.5267 H   0  0  0  0  0  0  0  0  0  0  0  0
    7.3365   -4.7797    1.0034 H   0  0  0  0  0  0  0  0  0  0  0  0
    6.5922   -6.9597    1.7833 H   0  0  0  0  0  0  0  0  0  0  0  0
    5.4483   -7.1164    0.3803 H   0  0  0  0  0  0  0  0  0  0  0  0
    7.2225   -7.1017    0.1006 H   0  0  0  0  0  0  0  0  0  0  0  0
    5.3467   -5.0930   -1.2981 H   0  0  0  0  0  0  0  0  0  0  0  0
    8.4524   -3.2964   -0.1111 H   0  0  0  0  0  0  0  0  0  0  0  0
    9.0743   -5.7093   -0.3371 H   0  0  0  0  0  0  0  0  0  0  0  0
   10.4865   -4.6359   -0.6262 H   0  0  0  0  0  0  0  0  0  0  0  0
    9.6390   -5.4041   -2.0216 H   0  0  0  0  0  0  0  0  0  0  0  0
    9.4555   -3.0550   -2.9798 H   0  0  0  0  0  0  0  0  0  0  0  0
    8.0791   -1.0700   -0.1847 H   0  0  0  0  0  0  0  0  0  0  0  0
   10.9788   -0.4816    0.7122 H   0  0  0  0  0  0  0  0  0  0  0  0
   10.2610   -2.1299    0.8510 H   0  0  0  0  0  0  0  0  0  0  0  0
    9.5239   -0.7711    1.7480 H   0  0  0  0  0  0  0  0  0  0  0  0
    9.1457    1.0830   -1.6219 H   0  0  0  0  0  0  0  0  0  0  0  0
    9.1253    3.7085    1.1227 H   0  0  0  0  0  0  0  0  0  0  0  0
   10.8489    2.7431   -1.2209 H   0  0  0  0  0  0  0  0  0  0  0  0
   11.3299    2.7738    0.5241 H   0  0  0  0  0  0  0  0  0  0  0  0
   10.9599    4.3111   -0.3458 H   0  0  0  0  0  0  0  0  0  0  0  0
    8.6579    3.6865   -1.8476 H   0  0  0  0  0  0  0  0  0  0  0  0
    6.9995    3.7812    1.4817 H   0  0  0  0  0  0  0  0  0  0  0  0
    7.2887    6.1333    1.5314 H   0  0  0  0  0  0  0  0  0  0  0  0
    5.6469    5.7914    2.1841 H   0  0  0  0  0  0  0  0  0  0  0  0
    5.8628    6.4420    0.5020 H   0  0  0  0  0  0  0  0  0  0  0  0
    5.0327    2.7094    1.2046 H   0  0  0  0  0  0  0  0  0  0  0  0
   -4.0920   -5.1271   -1.5414 H   0  0  0  0  0  0  0  0  0  0  0  0
   -1.9492   -5.4480    0.4210 H   0  0  0  0  0  0  0  0  0  0  0  0
   -2.7039   -7.3061   -0.9232 H   0  0  0  0  0  0  0  0  0  0  0  0
   -2.9325   -7.6731    0.8290 H   0  0  0  0  0  0  0  0  0  0  0  0
   -4.3535   -7.2263   -0.2089 H   0  0  0  0  0  0  0  0  0  0  0  0
   -4.8629   -3.5442    2.3043 H   0  0  0  0  0  0  0  0  0  0  0  0
   -6.9889   -4.2312    1.8777 H   0  0  0  0  0  0  0  0  0  0  0  0
   -5.7639   -7.0338    1.7110 H   0  0  0  0  0  0  0  0  0  0  0  0
   -6.2869   -6.1614    3.1994 H   0  0  0  0  0  0  0  0  0  0  0  0
   -7.5051   -6.6157    1.9496 H   0  0  0  0  0  0  0  0  0  0  0  0
   -6.8208   -3.8935   -1.8826 H   0  0  0  0  0  0  0  0  0  0  0  0
   -6.3481   -2.2736    0.6244 H   0  0  0  0  0  0  0  0  0  0  0  0
   -8.7524   -3.2250    0.7414 H   0  0  0  0  0  0  0  0  0  0  0  0
   -8.6541   -1.4178    0.7077 H   0  0  0  0  0  0  0  0  0  0  0  0
   -9.1038   -2.3372   -0.7820 H   0  0  0  0  0  0  0  0  0  0  0  0
   -6.0927    0.4956   -0.3031 H   0  0  0  0  0  0  0  0  0  0  0  0
   -8.7220    0.1785   -1.8033 H   0  0  0  0  0  0  0  0  0  0  0  0
   -8.2068    2.0288   -3.2759 H   0  0  0  0  0  0  0  0  0  0  0  0
   -6.6665    2.4046   -2.3858 H   0  0  0  0  0  0  0  0  0  0  0  0
   -6.8326    0.8911   -3.3620 H   0  0  0  0  0  0  0  0  0  0  0  0
   -8.9810    3.4242   -1.7025 H   0  0  0  0  0  0  0  0  0  0  0  0
  -10.5488    3.2830    0.6642 H   0  0  0  0  0  0  0  0  0  0  0  0
  -11.0290    4.8791   -1.1030 H   0  0  0  0  0  0  0  0  0  0  0  0
   -9.5323    5.8291   -0.7667 H   0  0  0  0  0  0  0  0  0  0  0  0
  -10.8442    5.7217    0.4797 H   0  0  0  0  0  0  0  0  0  0  0  0
   -6.9323    4.8531    2.2656 H   0  0  0  0  0  0  0  0  0  0  0  0
   -7.4686    5.1368   -0.7289 H   0  0  0  0  0  0  0  0  0  0  0  0
   -5.3287    8.1602    1.4158 H   0  0  0  0  0  0  0  0  0  0  0  0
   -5.0701    6.4691    1.9382 H   0  0  0  0  0  0  0  0  0  0  0  0
   -4.9169    4.3846    0.7761 H   0  0  0  0  0  0  0  0  0  0  0  0
   -5.8840    3.3480   -0.3326 H   0  0  0  0  0  0  0  0  0  0  0  0
   -4.0477    2.7243   -2.0532 H   0  0  0  0  0  0  0  0  0  0  0  0
   -2.7355    3.8550   -2.5136 H   0  0  0  0  0  0  0  0  0  0  0  0
  1  2  1  0
  2  3  2  0
  2  4  1  0
  4  5  1  0
  5  6  1  0
  6  7  1  0
  7  8  1  0
  8  9  1  0
  9 10  1  0
 10 11  2  0
 11 12  1  0
 12 13  2  0
 13 14  1  0
 13 15  1  0
 15 16  1  0
 16 17  1  0
 17 18  1  0
 18 19  1  0
 19 20  1  0
 20 21  2  0
 20 22  1  0
 22 23  1  0
 22 24  1  0
 24 25  1  0
 25 26  2  0
 25 27  1  0
 27 28  1  0
 27 29  1  0
 29 30  1  0
 30 31  2  0
 30 32  1  0
 32 33  1  0
 32 34  1  0
 34 35  1  0
 35 36  2  0
 35 37  1  0
 37 38  1  0
 37 39  1  0
 39 40  1  0
 40 41  2  0
 40 42  1  0
 42 43  1  0
 42 44  1  0
 44 45  1  0
 45 46  2  0
 45 47  1  0
 47 48  1  0
 47 49  1  0
 49 50  1  0
 50 51  2  0
 50 52  1  0
 52 53  1  0
 52 54  1  0
 54 55  1  0
 55 56  2  0
 18 57  1  0
 57 58  2  0
 57 59  1  0
 59 60  1  0
 60 61  1  0
 60 62  1  0
 62 63  2  0
 62 64  1  0
 64 65  1  0
 65 66  1  0
 65 67  1  0
 67 68  2  0
 67 69  1  0
 69 70  1  0
 70 71  1  0
 70 72  1  0
 72 73  2  0
 72 74  1  0
 74 75  1  0
 75 76  1  0
 75 77  1  0
 77 78  2  0
 77 79  1  0
 79 80  1  0
 80 81  1  0
 80 82  1  0
 82 83  2  0
 82 84  1  0
 84 85  1  0
 85 86  1  0
 86 87  1  0
 86 88  2  0
 85 89  1  0
 89 90  1  0
 90 91  1  0
 55  5  1  0
 14  9  2  0
 91 11  1  0
  1 92  1  0
  1 93  1  0
  1 94  1  0
  4 95  1  0
  5 96  1  1
  6 97  1  0
  6 98  1  0
  8 99  1  0
  8100  1  0
 10101  1  0
 12102  1  0
 14103  1  0
 15104  1  0
 15105  1  0
 17106  1  0
 17107  1  0
 18108  1  1
 19109  1  0
 22110  1  1
 23111  1  0
 23112  1  0
 23113  1  0
 24114  1  0
 27115  1  1
 28116  1  0
 28117  1  0
 28118  1  0
 29119  1  0
 32120  1  1
 33121  1  0
 33122  1  0
 33123  1  0
 34124  1  0
 37125  1  1
 38126  1  0
 38127  1  0
 38128  1  0
 39129  1  0
 42130  1  1
 43131  1  0
 43132  1  0
 43133  1  0
 44134  1  0
 47135  1  1
 48136  1  0
 48137  1  0
 48138  1  0
 49139  1  0
 52140  1  1
 53141  1  0
 53142  1  0
 53143  1  0
 54144  1  0
 59145  1  0
 60146  1  1
 61147  1  0
 61148  1  0
 61149  1  0
 64150  1  0
 65151  1  1
 66152  1  0
 66153  1  0
 66154  1  0
 69155  1  0
 70156  1  1
 71157  1  0
 71158  1  0
 71159  1  0
 74160  1  0
 75161  1  6
 76162  1  0
 76163  1  0
 76164  1  0
 79165  1  0
 80166  1  1
 81167  1  0
 81168  1  0
 81169  1  0
 84170  1  0
 85171  1  6
 87172  1  0
 87173  1  0
 89174  1  0
 89175  1  0
 91176  1  0
 91177  1  0
M  END
