
     RDKit          3D

177179  0  0  0  0  0  0  0  0999 V2000
   -2.1948   -7.6621    1.6986 C   0  0  0  0  0  0  0  0  0  0  0  0
   -2.8615   -7.1072    0.4829 C   0  0  0  0  0  0  0  0  0  0  0  0
   -2.4067   -7.4109   -0.6515 O   0  0  0  0  0  0  0  0  0  0  0  0
   -3.9877   -6.2190    0.6118 N   0  0  0  0  0  0  0  0  0  0  0  0
   -4.6209   -5.4624   -0.4796 C   0  0  1  0  0  0  0  0  0  0  0  0
   -3.8580   -4.1478   -0.7844 C   0  0  0  0  0  0  0  0  0  0  0  0
   -2.2337   -4.3542   -1.6111 S   0  0  0  0  0  0  0  0  0  0  0  0
   -1.1562   -4.3738   -0.1361 C   0  0  0  0  0  0  0  0  0  0  0  0
   -0.1576   -3.2500   -0.2223 C   0  0  0  0  0  0  0  0  0  0  0  0
    1.2145   -3.5256   -0.3442 C   0  0  0  0  0  0  0  0  0  0  0  0
    2.1484   -2.4813   -0.4800 C   0  0  0  0  0  0  0  0  0  0  0  0
    1.6952   -1.1542   -0.4249 C   0  0  0  0  0  0  0  0  0  0  0  0
    0.3259   -0.8603   -0.2890 C   0  0  0  0  0  0  0  0  0  0  0  0
   -0.5945   -1.9161   -0.1800 C   0  0  0  0  0  0  0  0  0  0  0  0
   -0.1508    0.5743   -0.2348 C   0  0  0  0  0  0  0  0  0  0  0  0
    0.3835    1.5076   -1.7227 S   0  0  0  0  0  0  0  0  0  0  0  0
    1.6859    2.5084   -0.9086 C   0  0  0  0  0  0  0  0  0  0  0  0
    1.1052    3.7068   -0.1216 C   0  0  2  0  0  0  0  0  0  0  0  0
    1.3109    4.9634   -0.8560 N   0  0  0  0  0  0  0  0  0  0  0  0
    0.3025    5.8607   -1.3688 C   0  0  0  0  0  0  0  0  0  0  0  0
    0.6800    6.7910   -2.1336 O   0  0  0  0  0  0  0  0  0  0  0  0
   -1.1723    5.8052   -1.0171 C   0  0  1  0  0  0  0  0  0  0  0  0
   -1.8925    4.6462   -1.7226 C   0  0  0  0  0  0  0  0  0  0  0  0
   -1.3814    5.7838    0.4361 N   0  0  0  0  0  0  0  0  0  0  0  0
   -2.5982    6.1573    1.1077 C   0  0  0  0  0  0  0  0  0  0  0  0
   -2.8805    5.5792    2.1925 O   0  0  0  0  0  0  0  0  0  0  0  0
   -3.4821    7.3016    0.6526 C   0  0  1  0  0  0  0  0  0  0  0  0
   -2.6958    8.6154    0.6344 C   0  0  0  0  0  0  0  0  0  0  0  0
   -4.0895    7.0338   -0.6566 N   0  0  0  0  0  0  0  0  0  0  0  0
   -5.1506    6.0896   -0.8867 C   0  0  0  0  0  0  0  0  0  0  0  0
   -5.5047    5.8601   -2.0735 O   0  0  0  0  0  0  0  0  0  0  0  0
   -5.8964    5.4273    0.2505 C   0  0  1  0  0  0  0  0  0  0  0  0
   -7.0986    6.2808    0.6752 C   0  0  0  0  0  0  0  0  0  0  0  0
   -6.3040    4.0578   -0.0916 N   0  0  0  0  0  0  0  0  0  0  0  0
   -7.4897    3.7498   -0.8361 C   0  0  0  0  0  0  0  0  0  0  0  0
   -7.5884    4.0972   -2.0435 O   0  0  0  0  0  0  0  0  0  0  0  0
   -8.6248    3.0289   -0.1666 C   0  0  1  0  0  0  0  0  0  0  0  0
   -9.9216    3.8385   -0.2752 C   0  0  0  0  0  0  0  0  0  0  0  0
   -8.8063    1.7013   -0.7550 N   0  0  0  0  0  0  0  0  0  0  0  0
   -8.2309    0.5403   -0.1434 C   0  0  0  0  0  0  0  0  0  0  0  0
   -7.0006    0.5239    0.1332 O   0  0  0  0  0  0  0  0  0  0  0  0
   -9.0975   -0.6234    0.2616 C   0  0  1  0  0  0  0  0  0  0  0  0
  -10.1638   -0.1547    1.2568 C   0  0  0  0  0  0  0  0  0  0  0  0
   -9.7474   -1.2305   -0.9078 N   0  0  0  0  0  0  0  0  0  0  0  0
  -10.0252   -2.6364   -1.0376 C   0  0  0  0  0  0  0  0  0  0  0  0
  -11.0083   -2.9935   -1.7430 O   0  0  0  0  0  0  0  0  0  0  0  0
   -9.1817   -3.6952   -0.3619 C   0  0  1  0  0  0  0  0  0  0  0  0
   -9.7568   -4.0503    1.0093 C   0  0  0  0  0  0  0  0  0  0  0  0
   -9.1479   -4.9082   -1.1842 N   0  0  0  0  0  0  0  0  0  0  0  0
   -7.9094   -5.4296   -1.6780 C   0  0  0  0  0  0  0  0  0  0  0  0
   -7.2534   -4.7558   -2.5214 O   0  0  0  0  0  0  0  0  0  0  0  0
   -7.3885   -6.7578   -1.1777 C   0  0  1  0  0  0  0  0  0  0  0  0
   -8.4110   -7.8739   -1.4340 C   0  0  0  0  0  0  0  0  0  0  0  0
   -6.1130   -7.1013   -1.8233 N   0  0  0  0  0  0  0  0  0  0  0  0
   -4.9023   -6.3341   -1.6948 C   0  0  0  0  0  0  0  0  0  0  0  0
   -4.0472   -6.4262   -2.6115 O   0  0  0  0  0  0  0  0  0  0  0  0
    1.6877    3.8155    1.2764 C   0  0  0  0  0  0  0  0  0  0  0  0
    0.9240    3.5812    2.2526 O   0  0  0  0  0  0  0  0  0  0  0  0
    3.0437    4.2137    1.5517 N   0  0  0  0  0  0  0  0  0  0  0  0
    4.2041    3.9799    0.6871 C   0  0  2  0  0  0  0  0  0  0  0  0
    4.9447    2.7263    1.1615 C   0  0  0  0  0  0  0  0  0  0  0  0
    5.1137    5.1866    0.6786 C   0  0  0  0  0  0  0  0  0  0  0  0
    4.8551    6.1853    1.4019 O   0  0  0  0  0  0  0  0  0  0  0  0
    6.2366    5.2384   -0.2021 N   0  0  0  0  0  0  0  0  0  0  0  0
    7.5485    4.7576    0.2331 C   0  0  2  0  0  0  0  0  0  0  0  0
    8.3426    5.9062    0.8605 C   0  0  0  0  0  0  0  0  0  0  0  0
    8.3212    4.1744   -0.9316 C   0  0  0  0  0  0  0  0  0  0  0  0
    7.9063    4.3486   -2.1096 O   0  0  0  0  0  0  0  0  0  0  0  0
    9.5634    3.4799   -0.7338 N   0  0  0  0  0  0  0  0  0  0  0  0
    9.7775    2.4971    0.3336 C   0  0  2  0  0  0  0  0  0  0  0  0
   11.2399    2.5618    0.7895 C   0  0  0  0  0  0  0  0  0  0  0  0
    9.3589    1.1345   -0.1746 C   0  0  0  0  0  0  0  0  0  0  0  0
    8.1912    1.0000   -0.6381 O   0  0  0  0  0  0  0  0  0  0  0  0
   10.2505    0.0080   -0.1644 N   0  0  0  0  0  0  0  0  0  0  0  0
   10.2587   -1.0130   -1.2161 C   0  0  2  0  0  0  0  0  0  0  0  0
   10.5749   -0.3697   -2.5740 C   0  0  0  0  0  0  0  0  0  0  0  0
    8.9635   -1.7905   -1.2202 C   0  0  0  0  0  0  0  0  0  0  0  0
    8.2816   -1.8993   -2.2754 O   0  0  0  0  0  0  0  0  0  0  0  0
    8.4660   -2.3596   -0.0048 N   0  0  0  0  0  0  0  0  0  0  0  0
    8.7461   -3.7394    0.3997 C   0  0  2  0  0  0  0  0  0  0  0  0
   10.2455   -3.9571    0.6281 C   0  0  0  0  0  0  0  0  0  0  0  0
    8.1835   -4.7122   -0.6121 C   0  0  0  0  0  0  0  0  0  0  0  0
    8.8391   -4.9527   -1.6637 O   0  0  0  0  0  0  0  0  0  0  0  0
    6.9067   -5.3498   -0.4388 N   0  0  0  0  0  0  0  0  0  0  0  0
    5.9245   -4.9492    0.5724 C   0  0  2  0  0  0  0  0  0  0  0  0
    6.1963   -5.6706    1.8622 C   0  0  0  0  0  0  0  0  0  0  0  0
    6.2495   -7.0977    1.9049 N   0  0  0  0  0  0  0  0  0  0  0  0
    6.3777   -5.0130    2.9230 O   0  0  0  0  0  0  0  0  0  0  0  0
    4.4932   -5.2499    0.0969 C   0  0  0  0  0  0  0  0  0  0  0  0
    4.0648   -4.3033   -1.4133 S   0  0  0  0  0  0  0  0  0  0  0  0
    3.6376   -2.7313   -0.5723 C   0  0  0  0  0  0  0  0  0  0  0  0
   -1.1352   -7.3362    1.7050 H   0  0  0  0  0  0  0  0  0  0  0  0
   -2.6771   -7.2948    2.6237 H   0  0  0  0  0  0  0  0  0  0  0  0
   -2.2409   -8.7703    1.6811 H   0  0  0  0  0  0  0  0  0  0  0  0
   -4.4012   -6.0998    1.5636 H   0  0  0  0  0  0  0  0  0  0  0  0
   -5.5990   -5.1089   -0.0935 H   0  0  0  0  0  0  0  0  0  0  0  0
   -4.4898   -3.5416   -1.4711 H   0  0  0  0  0  0  0  0  0  0  0  0
   -3.7521   -3.5486    0.1459 H   0  0  0  0  0  0  0  0  0  0  0  0
   -1.7194   -4.2996    0.8147 H   0  0  0  0  0  0  0  0  0  0  0  0
   -0.6269   -5.3459   -0.1310 H   0  0  0  0  0  0  0  0  0  0  0  0
    1.5501   -4.5559   -0.3447 H   0  0  0  0  0  0  0  0  0  0  0  0
    2.4166   -0.3518   -0.4939 H   0  0  0  0  0  0  0  0  0  0  0  0
   -1.6518   -1.6989   -0.0647 H   0  0  0  0  0  0  0  0  0  0  0  0
   -1.2605    0.6144   -0.2165 H   0  0  0  0  0  0  0  0  0  0  0  0
    0.2075    1.0571    0.7034 H   0  0  0  0  0  0  0  0  0  0  0  0
    2.2868    1.8570   -0.2447 H   0  0  0  0  0  0  0  0  0  0  0  0
    2.3602    2.8583   -1.7157 H   0  0  0  0  0  0  0  0  0  0  0  0
    0.0272    3.5257    0.0182 H   0  0  0  0  0  0  0  0  0  0  0  0
    2.2964    5.2254   -1.0836 H   0  0  0  0  0  0  0  0  0  0  0  0
   -1.6208    6.7330   -1.4204 H   0  0  0  0  0  0  0  0  0  0  0  0
   -2.9761    4.6867   -1.5124 H   0  0  0  0  0  0  0  0  0  0  0  0
   -1.7508    4.7239   -2.8206 H   0  0  0  0  0  0  0  0  0  0  0  0
   -1.5480    3.6513   -1.3910 H   0  0  0  0  0  0  0  0  0  0  0  0
   -0.6104    5.4541    1.0572 H   0  0  0  0  0  0  0  0  0  0  0  0
   -4.2961    7.4457    1.3974 H   0  0  0  0  0  0  0  0  0  0  0  0
   -2.2760    8.8240    1.6421 H   0  0  0  0  0  0  0  0  0  0  0  0
   -1.8622    8.5825   -0.0992 H   0  0  0  0  0  0  0  0  0  0  0  0
   -3.3717    9.4530    0.3569 H   0  0  0  0  0  0  0  0  0  0  0  0
   -3.7832    7.6020   -1.4781 H   0  0  0  0  0  0  0  0  0  0  0  0
   -5.2298    5.3485    1.1295 H   0  0  0  0  0  0  0  0  0  0  0  0
   -7.7805    6.4548   -0.1827 H   0  0  0  0  0  0  0  0  0  0  0  0
   -7.6576    5.7670    1.4875 H   0  0  0  0  0  0  0  0  0  0  0  0
   -6.7544    7.2657    1.0557 H   0  0  0  0  0  0  0  0  0  0  0  0
   -5.8892    3.2812    0.4723 H   0  0  0  0  0  0  0  0  0  0  0  0
   -8.3915    2.9229    0.9176 H   0  0  0  0  0  0  0  0  0  0  0  0
  -10.7365    3.3238    0.2773 H   0  0  0  0  0  0  0  0  0  0  0  0
  -10.2281    3.9484   -1.3383 H   0  0  0  0  0  0  0  0  0  0  0  0
   -9.7819    4.8500    0.1637 H   0  0  0  0  0  0  0  0  0  0  0  0
   -9.5323    1.5673   -1.4948 H   0  0  0  0  0  0  0  0  0  0  0  0
   -8.4586   -1.3646    0.7831 H   0  0  0  0  0  0  0  0  0  0  0  0
  -10.7719   -1.0186    1.5996 H   0  0  0  0  0  0  0  0  0  0  0  0
   -9.6800    0.3087    2.1434 H   0  0  0  0  0  0  0  0  0  0  0  0
  -10.8419    0.5880    0.7847 H   0  0  0  0  0  0  0  0  0  0  0  0
  -10.2737   -0.5980   -1.5522 H   0  0  0  0  0  0  0  0  0  0  0  0
   -8.1450   -3.3137   -0.2319 H   0  0  0  0  0  0  0  0  0  0  0  0
   -9.1417   -4.8480    1.4748 H   0  0  0  0  0  0  0  0  0  0  0  0
   -9.7505   -3.1715    1.6842 H   0  0  0  0  0  0  0  0  0  0  0  0
  -10.8005   -4.4215    0.9096 H   0  0  0  0  0  0  0  0  0  0  0  0
  -10.0132   -5.4858   -1.2697 H   0  0  0  0  0  0  0  0  0  0  0  0
   -7.2421   -6.6962   -0.0792 H   0  0  0  0  0  0  0  0  0  0  0  0
   -9.3645   -7.6735   -0.8993 H   0  0  0  0  0  0  0  0  0  0  0  0
   -8.0138   -8.8430   -1.0560 H   0  0  0  0  0  0  0  0  0  0  0  0
   -8.6206   -7.9698   -2.5220 H   0  0  0  0  0  0  0  0  0  0  0  0
   -6.0974   -7.8821   -2.5184 H   0  0  0  0  0  0  0  0  0  0  0  0
    3.2463    4.4755    2.5459 H   0  0  0  0  0  0  0  0  0  0  0  0
    3.8897    3.8118   -0.3569 H   0  0  0  0  0  0  0  0  0  0  0  0
    5.4148    2.9073    2.1519 H   0  0  0  0  0  0  0  0  0  0  0  0
    5.7219    2.4355    0.4252 H   0  0  0  0  0  0  0  0  0  0  0  0
    4.2341    1.8786    1.2538 H   0  0  0  0  0  0  0  0  0  0  0  0
    6.2103    5.9702   -0.9511 H   0  0  0  0  0  0  0  0  0  0  0  0
    7.4016    3.9798    1.0031 H   0  0  0  0  0  0  0  0  0  0  0  0
    8.5395    6.6956    0.1054 H   0  0  0  0  0  0  0  0  0  0  0  0
    7.7680    6.3506    1.7007 H   0  0  0  0  0  0  0  0  0  0  0  0
    9.3109    5.5375    1.2592 H   0  0  0  0  0  0  0  0  0  0  0  0
   10.1991    3.4241   -1.5618 H   0  0  0  0  0  0  0  0  0  0  0  0
    9.1569    2.7349    1.2199 H   0  0  0  0  0  0  0  0  0  0  0  0
   11.3907    1.9256    1.6880 H   0  0  0  0  0  0  0  0  0  0  0  0
   11.4981    3.6043    1.0643 H   0  0  0  0  0  0  0  0  0  0  0  0
   11.9206    2.2326   -0.0233 H   0  0  0  0  0  0  0  0  0  0  0  0
   10.9330   -0.0962    0.6220 H   0  0  0  0  0  0  0  0  0  0  0  0
   11.0819   -1.7250   -1.0031 H   0  0  0  0  0  0  0  0  0  0  0  0
    9.7628    0.3217   -2.8844 H   0  0  0  0  0  0  0  0  0  0  0  0
   10.6902   -1.1571   -3.3510 H   0  0  0  0  0  0  0  0  0  0  0  0
   11.5231    0.2041   -2.5169 H   0  0  0  0  0  0  0  0  0  0  0  0
    7.6502   -1.8761    0.4434 H   0  0  0  0  0  0  0  0  0  0  0  0
    8.2652   -3.9105    1.3824 H   0  0  0  0  0  0  0  0  0  0  0  0
   10.8165   -3.9240   -0.3226 H   0  0  0  0  0  0  0  0  0  0  0  0
   10.4127   -4.9531    1.0937 H   0  0  0  0  0  0  0  0  0  0  0  0
   10.6448   -3.1790    1.3137 H   0  0  0  0  0  0  0  0  0  0  0  0
    6.6289   -6.0666   -1.1500 H   0  0  0  0  0  0  0  0  0  0  0  0
    5.9945   -3.8568    0.7462 H   0  0  0  0  0  0  0  0  0  0  0  0
    6.0589   -7.6636    1.0489 H   0  0  0  0  0  0  0  0  0  0  0  0
    6.4158   -7.5889    2.8085 H   0  0  0  0  0  0  0  0  0  0  0  0
    4.4000   -6.3304   -0.1456 H   0  0  0  0  0  0  0  0  0  0  0  0
    3.7618   -5.0319    0.9043 H   0  0  0  0  0  0  0  0  0  0  0  0
    4.0777   -2.6591    0.4455 H   0  0  0  0  0  0  0  0  0  0  0  0
    4.0956   -1.9238   -1.1869 H   0  0  0  0  0  0  0  0  0  0  0  0
  1  2  1  0
  2  3  2  0
  2  4  1  0
  4  5  1  0
  5  6  1  0
  6  7  1  0
  7  8  1  0
  8  9  1  0
  9 10  1  0
 10 11  2  0
 11 12  1  0
 12 13  2  0
 13 14  1  0
 13 15  1  0
 15 16  1  0
 16 17  1  0
 17 18  1  0
 18 19  1  0
 19 20  1  0
 20 21  2  0
 20 22  1  0
 22 23  1  0
 22 24  1  0
 24 25  1  0
 25 26  2  0
 25 27  1  0
 27 28  1  0
 27 29  1  0
 29 30  1  0
 30 31  2  0
 30 32  1  0
 32 33  1  0
 32 34  1  0
 34 35  1  0
 35 36  2  0
 35 37  1  0
 37 38  1  0
 37 39  1  0
 39 40  1  0
 40 41  2  0
 40 42  1  0
 42 43  1  0
 42 44  1  0
 44 45  1  0
 45 46  2  0
 45 47  1  0
 47 48  1  0
 47 49  1  0
 49 50  1  0
 50 51  2  0
 50 52  1  0
 52 53  1  0
 52 54  1  0
 54 55  1  0
 55 56  2  0
 18 57  1  0
 57 58  2  0
 57 59  1  0
 59 60  1  0
 60 61  1  0
 60 62  1  0
 62 63  2  0
 62 64  1  0
 64 65  1  0
 65 66  1  0
 65 67  1  0
 67 68  2  0
 67 69  1  0
 69 70  1  0
 70 71  1  0
 70 72  1  0
 72 73  2  0
 72 74  1  0
 74 75  1  0
 75 76  1  0
 75 77  1  0
 77 78  2  0
 77 79  1  0
 79 80  1  0
 80 81  1  0
 80 82  1  0
 82 83  2  0
 82 84  1  0
 84 85  1  0
 85 86  1  0
 86 87  1  0
 86 88  2  0
 85 89  1  0
 89 90  1  0
 90 91  1  0
 55  5  1  0
 14  9  2  0
 91 11  1  0
  1 92  1  0
  1 93  1  0
  1 94  1  0
  4 95  1  0
  5 96  1  1
  6 97  1  0
  6 98  1  0
  8 99  1  0
  8100  1  0
 10101  1  0
 12102  1  0
 14103  1  0
 15104  1  0
 15105  1  0
 17106  1  0
 17107  1  0
 18108  1  1
 19109  1  0
 22110  1  6
 23111  1  0
 23112  1  0
 23113  1  0
 24114  1  0
 27115  1  1
 28116  1  0
 28117  1  0
 28118  1  0
 29119  1  0
 32120  1  1
 33121  1  0
 33122  1  0
 33123  1  0
 34124  1  0
 37125  1  1
 38126  1  0
 38127  1  0
 38128  1  0
 39129  1  0
 42130  1  1
 43131  1  0
 43132  1  0
 43133  1  0
 44134  1  0
 47135  1  1
 48136  1  0
 48137  1  0
 48138  1  0
 49139  1  0
 52140  1  1
 53141  1  0
 53142  1  0
 53143  1  0
 54144  1  0
 59145  1  0
 60146  1  6
 61147  1  0
 61148  1  0
 61149  1  0
 64150  1  0
 65151  1  1
 66152  1  0
 66153  1  0
 66154  1  0
 69155  1  0
 70156  1  1
 71157  1  0
 71158  1  0
 71159  1  0
 74160  1  0
 75161  1  1
 76162  1  0
 76163  1  0
 76164  1  0
 79165  1  0
 80166  1  1
 81167  1  0
 81168  1  0
 81169  1  0
 84170  1  0
 85171  1  1
 87172  1  0
 87173  1  0
 89174  1  0
 89175  1  0
 91176  1  0
 91177  1  0
M  END
