
     RDKit          3D

167169  0  0  0  0  0  0  0  0999 V2000
   -3.1649    5.9873   -3.4931 C   0  0  0  0  0  0  0  0  0  0  0  0
   -3.8777    4.8725   -2.7857 C   0  0  0  0  0  0  0  0  0  0  0  0
   -4.6355    4.1177   -3.4535 O   0  0  0  0  0  0  0  0  0  0  0  0
   -3.7273    4.6363   -1.3747 N   0  0  0  0  0  0  0  0  0  0  0  0
   -2.9378    5.4799   -0.4674 C   0  0  2  0  0  0  0  0  0  0  0  0
   -1.7866    4.6542    0.1336 C   0  0  0  0  0  0  0  0  0  0  0  0
   -2.4138    3.2317    1.1030 S   0  0  0  0  0  0  0  0  0  0  0  0
   -0.8384    2.8071    1.9347 C   0  0  0  0  0  0  0  0  0  0  0  0
    0.2949    2.5724    0.9697 C   0  0  0  0  0  0  0  0  0  0  0  0
    1.5308    3.2063    1.1725 C   0  0  0  0  0  0  0  0  0  0  0  0
    2.5997    2.9806    0.2936 C   0  0  0  0  0  0  0  0  0  0  0  0
    2.4291    2.1072   -0.7905 C   0  0  0  0  0  0  0  0  0  0  0  0
    1.2052    1.4550   -0.9994 C   0  0  0  0  0  0  0  0  0  0  0  0
    0.1381    1.7024   -0.1180 C   0  0  0  0  0  0  0  0  0  0  0  0
    1.0437    0.5651   -2.2103 C   0  0  0  0  0  0  0  0  0  0  0  0
   -0.0941   -0.8420   -1.9305 S   0  0  0  0  0  0  0  0  0  0  0  0
    0.9667   -1.7666   -0.7564 C   0  0  0  0  0  0  0  0  0  0  0  0
    1.4986   -3.0540   -1.3992 C   0  0  2  0  0  0  0  0  0  0  0  0
    0.4310   -3.8688   -1.9977 N   0  0  0  0  0  0  0  0  0  0  0  0
   -0.5593   -4.5852   -1.2465 C   0  0  0  0  0  0  0  0  0  0  0  0
   -0.4396   -5.8360   -1.1197 O   0  0  0  0  0  0  0  0  0  0  0  0
   -1.8143   -3.8922   -0.7719 C   0  0  1  0  0  0  0  0  0  0  0  0
   -2.7098   -3.4931   -1.9468 C   0  0  0  0  0  0  0  0  0  0  0  0
   -2.5477   -4.6968    0.2168 N   0  0  0  0  0  0  0  0  0  0  0  0
   -3.2950   -5.8931   -0.0760 C   0  0  0  0  0  0  0  0  0  0  0  0
   -3.3024   -6.3755   -1.2401 O   0  0  0  0  0  0  0  0  0  0  0  0
   -4.0388   -6.6125    1.0170 C   0  0  1  0  0  0  0  0  0  0  0  0
   -3.0558   -7.3655    1.9126 C   0  0  0  0  0  0  0  0  0  0  0  0
   -4.8241   -5.6594    1.8102 N   0  0  0  0  0  0  0  0  0  0  0  0
   -6.2334   -5.4093    1.6487 C   0  0  0  0  0  0  0  0  0  0  0  0
   -6.8198   -4.6921    2.5018 O   0  0  0  0  0  0  0  0  0  0  0  0
   -7.0457   -6.0112    0.5238 C   0  0  1  0  0  0  0  0  0  0  0  0
   -7.6557   -7.3359    0.9916 C   0  0  0  0  0  0  0  0  0  0  0  0
   -8.1139   -5.0854    0.1167 N   0  0  0  0  0  0  0  0  0  0  0  0
   -7.9123   -3.8604   -0.6178 C   0  0  0  0  0  0  0  0  0  0  0  0
   -8.9249   -3.1798   -0.9317 O   0  0  0  0  0  0  0  0  0  0  0  0
   -6.5365   -3.3461   -0.9882 C   0  0  1  0  0  0  0  0  0  0  0  0
   -6.4737   -2.7832   -2.4183 C   0  0  0  0  0  0  0  0  0  0  0  0
   -6.0246   -2.3924    0.0094 N   0  0  0  0  0  0  0  0  0  0  0  0
   -6.7329   -1.2960    0.6169 C   0  0  0  0  0  0  0  0  0  0  0  0
   -6.5219   -1.0550    1.8371 O   0  0  0  0  0  0  0  0  0  0  0  0
   -7.5988   -0.3368   -0.1653 C   0  0  1  0  0  0  0  0  0  0  0  0
   -8.9304   -0.1168    0.5641 C   0  0  0  0  0  0  0  0  0  0  0  0
   -6.8447    0.9075   -0.3905 N   0  0  0  0  0  0  0  0  0  0  0  0
   -7.4404    2.2034   -0.5542 C   0  0  0  0  0  0  0  0  0  0  0  0
   -7.5790    2.6743   -1.7158 O   0  0  0  0  0  0  0  0  0  0  0  0
   -7.8282    3.0309    0.6513 C   0  0  1  0  0  0  0  0  0  0  0  0
   -6.6904    3.0492    1.6824 C   0  0  0  0  0  0  0  0  0  0  0  0
   -8.2738    4.3781    0.2534 N   0  0  0  0  0  0  0  0  0  0  0  0
   -7.5575    5.5958    0.5044 C   0  0  0  0  0  0  0  0  0  0  0  0
   -8.0841    6.4772    1.2416 O   0  0  0  0  0  0  0  0  0  0  0  0
   -6.2179    5.8611   -0.1342 C   0  0  1  0  0  0  0  0  0  0  0  0
   -6.2226    7.2227   -0.8358 C   0  0  0  0  0  0  0  0  0  0  0  0
   -5.1526    5.8101    0.8792 N   0  0  0  0  0  0  0  0  0  0  0  0
   -3.7694    6.1131    0.6328 C   0  0  0  0  0  0  0  0  0  0  0  0
   -3.1907    6.9137    1.4172 O   0  0  0  0  0  0  0  0  0  0  0  0
    2.3110   -3.8670   -0.4238 C   0  0  0  0  0  0  0  0  0  0  0  0
    1.8078   -4.2380    0.6700 O   0  0  0  0  0  0  0  0  0  0  0  0
    3.6326   -4.2966   -0.7710 N   0  0  0  0  0  0  0  0  0  0  0  0
    4.8445   -3.5470   -0.3972 C   0  0  2  0  0  0  0  0  0  0  0  0
    4.6160   -2.0263   -0.4296 C   0  0  0  0  0  0  0  0  0  0  0  0
    5.9970   -3.9121   -1.3089 C   0  0  0  0  0  0  0  0  0  0  0  0
    5.8250   -4.7104   -2.2673 O   0  0  0  0  0  0  0  0  0  0  0  0
    7.2782   -3.2961   -1.1439 N   0  0  0  0  0  0  0  0  0  0  0  0
    8.2949   -3.8456   -0.2400 C   0  0  2  0  0  0  0  0  0  0  0  0
    7.8567   -3.7758    1.2265 C   0  0  0  0  0  0  0  0  0  0  0  0
    9.6271   -3.1507   -0.4321 C   0  0  0  0  0  0  0  0  0  0  0  0
   10.5700   -3.7949   -0.9703 O   0  0  0  0  0  0  0  0  0  0  0  0
    9.8907   -1.8164    0.0428 N   0  0  0  0  0  0  0  0  0  0  0  0
    8.9242   -0.7174    0.0058 C   0  0  2  0  0  0  0  0  0  0  0  0
    9.2487    0.2176   -1.1626 C   0  0  0  0  0  0  0  0  0  0  0  0
    8.9228    0.0037    1.3261 C   0  0  0  0  0  0  0  0  0  0  0  0
    7.9827   -0.2013    2.1452 O   0  0  0  0  0  0  0  0  0  0  0  0
    9.9950    0.8711    1.6985 N   0  0  0  0  0  0  0  0  0  0  0  0
    9.8478    2.3222    1.5599 C   0  0  2  0  0  0  0  0  0  0  0  0
   11.2253    2.9874    1.5843 C   0  0  0  0  0  0  0  0  0  0  0  0
    8.9850    2.8670    2.6804 C   0  0  0  0  0  0  0  0  0  0  0  0
    9.3133    2.5929    3.8677 O   0  0  0  0  0  0  0  0  0  0  0  0
    7.8199    3.6940    2.4675 N   0  0  0  0  0  0  0  0  0  0  0  0
    7.2412    4.1095    1.1805 C   0  0  1  0  0  0  0  0  0  0  0  0
    8.2582    4.8572    0.3481 C   0  0  0  0  0  0  0  0  0  0  0  0
    8.9209    5.9977    0.8949 N   0  0  0  0  0  0  0  0  0  0  0  0
    8.5166    4.5032   -0.8340 O   0  0  0  0  0  0  0  0  0  0  0  0
    6.5849    2.9183    0.4529 C   0  0  0  0  0  0  0  0  0  0  0  0
    5.0540    2.3842    1.2946 S   0  0  0  0  0  0  0  0  0  0  0  0
    3.9381    3.6171    0.5357 C   0  0  0  0  0  0  0  0  0  0  0  0
   -3.4032    5.9720   -4.5776 H   0  0  0  0  0  0  0  0  0  0  0  0
   -2.0704    5.8650   -3.3742 H   0  0  0  0  0  0  0  0  0  0  0  0
   -3.4825    6.9669   -3.0788 H   0  0  0  0  0  0  0  0  0  0  0  0
   -4.1915    3.7863   -0.9838 H   0  0  0  0  0  0  0  0  0  0  0  0
   -2.4771    6.3174   -1.0276 H   0  0  0  0  0  0  0  0  0  0  0  0
   -1.1504    4.2769   -0.6959 H   0  0  0  0  0  0  0  0  0  0  0  0
   -1.1572    5.3045    0.7796 H   0  0  0  0  0  0  0  0  0  0  0  0
   -1.0006    1.8748    2.5169 H   0  0  0  0  0  0  0  0  0  0  0  0
   -0.5882    3.6086    2.6620 H   0  0  0  0  0  0  0  0  0  0  0  0
    1.6676    3.8690    2.0195 H   0  0  0  0  0  0  0  0  0  0  0  0
    3.2591    1.9272   -1.4663 H   0  0  0  0  0  0  0  0  0  0  0  0
   -0.8224    1.2288   -0.2788 H   0  0  0  0  0  0  0  0  0  0  0  0
    2.0268    0.1553   -2.5284 H   0  0  0  0  0  0  0  0  0  0  0  0
    0.6429    1.1750   -3.0475 H   0  0  0  0  0  0  0  0  0  0  0  0
    0.3826   -1.9948    0.1581 H   0  0  0  0  0  0  0  0  0  0  0  0
    1.8154   -1.1371   -0.4210 H   0  0  0  0  0  0  0  0  0  0  0  0
    2.1787   -2.7402   -2.2222 H   0  0  0  0  0  0  0  0  0  0  0  0
    0.5784   -4.1835   -2.9820 H   0  0  0  0  0  0  0  0  0  0  0  0
   -1.5262   -2.9512   -0.2708 H   0  0  0  0  0  0  0  0  0  0  0  0
   -2.1931   -2.7472   -2.5884 H   0  0  0  0  0  0  0  0  0  0  0  0
   -3.6373   -3.0259   -1.5578 H   0  0  0  0  0  0  0  0  0  0  0  0
   -2.9732   -4.3597   -2.5879 H   0  0  0  0  0  0  0  0  0  0  0  0
   -2.5313   -4.3579    1.2038 H   0  0  0  0  0  0  0  0  0  0  0  0
   -4.7026   -7.3753    0.5595 H   0  0  0  0  0  0  0  0  0  0  0  0
   -2.3521   -6.6647    2.4146 H   0  0  0  0  0  0  0  0  0  0  0  0
   -3.6155   -7.9272    2.6904 H   0  0  0  0  0  0  0  0  0  0  0  0
   -2.4703   -8.0967    1.3132 H   0  0  0  0  0  0  0  0  0  0  0  0
   -4.3320   -5.1142    2.5534 H   0  0  0  0  0  0  0  0  0  0  0  0
   -6.4129   -6.2309   -0.3590 H   0  0  0  0  0  0  0  0  0  0  0  0
   -8.3273   -7.1751    1.8633 H   0  0  0  0  0  0  0  0  0  0  0  0
   -6.8590   -8.0549    1.2836 H   0  0  0  0  0  0  0  0  0  0  0  0
   -8.2461   -7.7916    0.1669 H   0  0  0  0  0  0  0  0  0  0  0  0
   -9.0919   -5.2913    0.4165 H   0  0  0  0  0  0  0  0  0  0  0  0
   -5.8282   -4.2033   -1.0038 H   0  0  0  0  0  0  0  0  0  0  0  0
   -5.5632   -2.1686   -2.5541 H   0  0  0  0  0  0  0  0  0  0  0  0
   -7.3560   -2.1727   -2.6866 H   0  0  0  0  0  0  0  0  0  0  0  0
   -6.4353   -3.6240   -3.1425 H   0  0  0  0  0  0  0  0  0  0  0  0
   -5.1408   -2.6801    0.4927 H   0  0  0  0  0  0  0  0  0  0  0  0
   -7.8461   -0.7595   -1.1513 H   0  0  0  0  0  0  0  0  0  0  0  0
   -9.4634   -1.0837    0.6808 H   0  0  0  0  0  0  0  0  0  0  0  0
   -9.5881    0.5592   -0.0241 H   0  0  0  0  0  0  0  0  0  0  0  0
   -8.7655    0.3050    1.5779 H   0  0  0  0  0  0  0  0  0  0  0  0
   -5.9037    0.7936   -0.8298 H   0  0  0  0  0  0  0  0  0  0  0  0
   -8.6945    2.5447    1.1432 H   0  0  0  0  0  0  0  0  0  0  0  0
   -5.7260    3.3216    1.2066 H   0  0  0  0  0  0  0  0  0  0  0  0
   -6.5746    2.0391    2.1312 H   0  0  0  0  0  0  0  0  0  0  0  0
   -6.9221    3.7581    2.5058 H   0  0  0  0  0  0  0  0  0  0  0  0
   -9.2837    4.4774    0.0069 H   0  0  0  0  0  0  0  0  0  0  0  0
   -6.0686    5.0757   -0.8962 H   0  0  0  0  0  0  0  0  0  0  0  0
   -7.0401    7.2637   -1.5861 H   0  0  0  0  0  0  0  0  0  0  0  0
   -5.2620    7.3891   -1.3618 H   0  0  0  0  0  0  0  0  0  0  0  0
   -6.3682    8.0410   -0.0979 H   0  0  0  0  0  0  0  0  0  0  0  0
   -5.4392    5.8233    1.8852 H   0  0  0  0  0  0  0  0  0  0  0  0
    3.7423   -5.3327   -0.8663 H   0  0  0  0  0  0  0  0  0  0  0  0
    5.1068   -3.8274    0.6410 H   0  0  0  0  0  0  0  0  0  0  0  0
    3.8912   -1.7389    0.3582 H   0  0  0  0  0  0  0  0  0  0  0  0
    5.5587   -1.4843   -0.2082 H   0  0  0  0  0  0  0  0  0  0  0  0
    4.2468   -1.7048   -1.4247 H   0  0  0  0  0  0  0  0  0  0  0  0
    7.5781   -2.6403   -1.9013 H   0  0  0  0  0  0  0  0  0  0  0  0
    8.4307   -4.9223   -0.4980 H   0  0  0  0  0  0  0  0  0  0  0  0
    8.7210   -3.9591    1.9014 H   0  0  0  0  0  0  0  0  0  0  0  0
    7.4161   -2.7866    1.4660 H   0  0  0  0  0  0  0  0  0  0  0  0
    7.1057   -4.5650    1.4364 H   0  0  0  0  0  0  0  0  0  0  0  0
   10.8909   -1.5624    0.2042 H   0  0  0  0  0  0  0  0  0  0  0  0
    7.9005   -1.1010   -0.1572 H   0  0  0  0  0  0  0  0  0  0  0  0
   10.2608    0.6620   -1.0430 H   0  0  0  0  0  0  0  0  0  0  0  0
    9.2260   -0.3524   -2.1144 H   0  0  0  0  0  0  0  0  0  0  0  0
    8.4997    1.0331   -1.2361 H   0  0  0  0  0  0  0  0  0  0  0  0
   10.6659    0.5080    2.4119 H   0  0  0  0  0  0  0  0  0  0  0  0
    9.4131    2.5369    0.5716 H   0  0  0  0  0  0  0  0  0  0  0  0
   11.8552    2.5831    0.7659 H   0  0  0  0  0  0  0  0  0  0  0  0
   11.7389    2.8003    2.5540 H   0  0  0  0  0  0  0  0  0  0  0  0
   11.1240    4.0863    1.4371 H   0  0  0  0  0  0  0  0  0  0  0  0
    7.3501    4.0602    3.3256 H   0  0  0  0  0  0  0  0  0  0  0  0
    6.4339    4.8461    1.3901 H   0  0  0  0  0  0  0  0  0  0  0  0
    9.6271    6.5176    0.3303 H   0  0  0  0  0  0  0  0  0  0  0  0
    8.7136    6.3218    1.8662 H   0  0  0  0  0  0  0  0  0  0  0  0
    7.2600    2.0461    0.4484 H   0  0  0  0  0  0  0  0  0  0  0  0
    6.3721    3.1644   -0.6071 H   0  0  0  0  0  0  0  0  0  0  0  0
    3.8455    4.4847    1.2231 H   0  0  0  0  0  0  0  0  0  0  0  0
    4.3275    4.0002   -0.4316 H   0  0  0  0  0  0  0  0  0  0  0  0
  1  2  1  0
  2  3  2  0
  2  4  1  0
  4  5  1  0
  5  6  1  0
  6  7  1  0
  7  8  1  0
  8  9  1  0
  9 10  1  0
 10 11  2  0
 11 12  1  0
 12 13  2  0
 13 14  1  0
 13 15  1  0
 15 16  1  0
 16 17  1  0
 17 18  1  0
 18 19  1  0
 19 20  1  0
 20 21  2  0
 20 22  1  0
 22 23  1  0
 22 24  1  0
 24 25  1  0
 25 26  2  0
 25 27  1  0
 27 28  1  0
 27 29  1  0
 29 30  1  0
 30 31  2  0
 30 32  1  0
 32 33  1  0
 32 34  1  0
 34 35  1  0
 35 36  2  0
 35 37  1  0
 37 38  1  0
 37 39  1  0
 39 40  1  0
 40 41  2  0
 40 42  1  0
 42 43  1  0
 42 44  1  0
 44 45  1  0
 45 46  2  0
 45 47  1  0
 47 48  1  0
 47 49  1  0
 49 50  1  0
 50 51  2  0
 50 52  1  0
 52 53  1  0
 52 54  1  0
 54 55  1  0
 55 56  2  0
 18 57  1  0
 57 58  2  0
 57 59  1  0
 59 60  1  0
 60 61  1  0
 60 62  1  0
 62 63  2  0
 62 64  1  0
 64 65  1  0
 65 66  1  0
 65 67  1  0
 67 68  2  0
 67 69  1  0
 69 70  1  0
 70 71  1  0
 70 72  1  0
 72 73  2  0
 72 74  1  0
 74 75  1  0
 75 76  1  0
 75 77  1  0
 77 78  2  0
 77 79  1  0
 79 80  1  0
 80 81  1  0
 81 82  1  0
 81 83  2  0
 80 84  1  0
 84 85  1  0
 85 86  1  0
 55  5  1  0
 14  9  2  0
 86 11  1  0
  1 87  1  0
  1 88  1  0
  1 89  1  0
  4 90  1  0
  5 91  1  6
  6 92  1  0
  6 93  1  0
  8 94  1  0
  8 95  1  0
 10 96  1  0
 12 97  1  0
 14 98  1  0
 15 99  1  0
 15100  1  0
 17101  1  0
 17102  1  0
 18103  1  6
 19104  1  0
 22105  1  1
 23106  1  0
 23107  1  0
 23108  1  0
 24109  1  0
 27110  1  6
 28111  1  0
 28112  1  0
 28113  1  0
 29114  1  0
 32115  1  6
 33116  1  0
 33117  1  0
 33118  1  0
 34119  1  0
 37120  1  6
 38121  1  0
 38122  1  0
 38123  1  0
 39124  1  0
 42125  1  6
 43126  1  0
 43127  1  0
 43128  1  0
 44129  1  0
 47130  1  1
 48131  1  0
 48132  1  0
 48133  1  0
 49134  1  0
 52135  1  6
 53136  1  0
 53137  1  0
 53138  1  0
 54139  1  0
 59140  1  0
 60141  1  1
 61142  1  0
 61143  1  0
 61144  1  0
 64145  1  0
 65146  1  6
 66147  1  0
 66148  1  0
 66149  1  0
 69150  1  0
 70151  1  6
 71152  1  0
 71153  1  0
 71154  1  0
 74155  1  0
 75156  1  6
 76157  1  0
 76158  1  0
 76159  1  0
 79160  1  0
 80161  1  1
 82162  1  0
 82163  1  0
 84164  1  0
 84165  1  0
 86166  1  0
 86167  1  0
M  END
