
     RDKit          3D

167169  0  0  0  0  0  0  0  0999 V2000
    2.7244   -8.8507    2.1665 C   0  0  0  0  0  0  0  0  0  0  0  0
    2.5042   -7.3754    2.1488 C   0  0  0  0  0  0  0  0  0  0  0  0
    1.4557   -6.8953    2.6655 O   0  0  0  0  0  0  0  0  0  0  0  0
    3.4783   -6.5188    1.5339 N   0  0  0  0  0  0  0  0  0  0  0  0
    3.3981   -5.0498    1.5738 C   0  0  2  0  0  0  0  0  0  0  0  0
    2.7471   -4.5091    0.2867 C   0  0  0  0  0  0  0  0  0  0  0  0
    1.0207   -5.0839    0.0772 S   0  0  0  0  0  0  0  0  0  0  0  0
    0.2404   -3.9359    1.2666 C   0  0  0  0  0  0  0  0  0  0  0  0
   -0.5826   -2.9169    0.5314 C   0  0  0  0  0  0  0  0  0  0  0  0
   -1.7864   -3.2964   -0.0813 C   0  0  0  0  0  0  0  0  0  0  0  0
   -2.5805   -2.3484   -0.7574 C   0  0  0  0  0  0  0  0  0  0  0  0
   -2.1241   -1.0237   -0.8473 C   0  0  0  0  0  0  0  0  0  0  0  0
   -0.9451   -0.6197   -0.1949 C   0  0  0  0  0  0  0  0  0  0  0  0
   -0.1619   -1.5822    0.4632 C   0  0  0  0  0  0  0  0  0  0  0  0
   -0.4709    0.8076   -0.3096 C   0  0  0  0  0  0  0  0  0  0  0  0
    0.2081    1.4631    1.2632 S   0  0  0  0  0  0  0  0  0  0  0  0
   -1.3753    1.7205    2.1497 C   0  0  0  0  0  0  0  0  0  0  0  0
   -2.0635    3.0412    1.7552 C   0  0  2  0  0  0  0  0  0  0  0  0
   -1.1218    4.1600    1.9143 N   0  0  0  0  0  0  0  0  0  0  0  0
   -0.8366    5.1322    0.8966 C   0  0  0  0  0  0  0  0  0  0  0  0
   -0.6421    6.3280    1.2496 O   0  0  0  0  0  0  0  0  0  0  0  0
   -0.5778    4.7335   -0.5426 C   0  0  1  0  0  0  0  0  0  0  0  0
   -0.9155    5.8623   -1.5208 C   0  0  0  0  0  0  0  0  0  0  0  0
    0.8149    4.3129   -0.7123 N   0  0  0  0  0  0  0  0  0  0  0  0
    1.9215    5.1058   -0.2727 C   0  0  0  0  0  0  0  0  0  0  0  0
    2.3983    4.9214    0.8808 O   0  0  0  0  0  0  0  0  0  0  0  0
    2.5817    6.0707   -1.2132 C   0  0  1  0  0  0  0  0  0  0  0  0
    2.6771    7.4593   -0.5614 C   0  0  0  0  0  0  0  0  0  0  0  0
    3.8852    5.5251   -1.6190 N   0  0  0  0  0  0  0  0  0  0  0  0
    5.1486    6.1639   -1.3959 C   0  0  0  0  0  0  0  0  0  0  0  0
    5.3608    7.3109   -1.8777 O   0  0  0  0  0  0  0  0  0  0  0  0
    6.2452    5.4715   -0.6262 C   0  0  1  0  0  0  0  0  0  0  0  0
    6.6365    6.3120    0.5933 C   0  0  0  0  0  0  0  0  0  0  0  0
    5.8133    4.1410   -0.1776 N   0  0  0  0  0  0  0  0  0  0  0  0
    6.2782    2.9142   -0.7609 C   0  0  0  0  0  0  0  0  0  0  0  0
    5.4256    2.0319   -1.0616 O   0  0  0  0  0  0  0  0  0  0  0  0
    7.7459    2.6582   -1.0512 C   0  0  1  0  0  0  0  0  0  0  0  0
    8.6796    3.2692    0.0046 C   0  0  0  0  0  0  0  0  0  0  0  0
    8.0226    1.2189   -1.1644 N   0  0  0  0  0  0  0  0  0  0  0  0
    7.9374    0.3426   -0.0273 C   0  0  0  0  0  0  0  0  0  0  0  0
    6.8533    0.2489    0.6076 O   0  0  0  0  0  0  0  0  0  0  0  0
    9.1843   -0.3305    0.4940 C   0  0  1  0  0  0  0  0  0  0  0  0
    8.9174   -1.3642    1.5994 C   0  0  0  0  0  0  0  0  0  0  0  0
    9.9946   -0.8852   -0.5976 N   0  0  0  0  0  0  0  0  0  0  0  0
    9.5987   -1.8816   -1.5579 C   0  0  0  0  0  0  0  0  0  0  0  0
   10.2950   -2.0048   -2.6037 O   0  0  0  0  0  0  0  0  0  0  0  0
    8.4754   -2.8671   -1.3000 C   0  0  1  0  0  0  0  0  0  0  0  0
    7.9633   -3.4650   -2.6221 C   0  0  0  0  0  0  0  0  0  0  0  0
    8.9633   -3.9288   -0.4073 N   0  0  0  0  0  0  0  0  0  0  0  0
    8.1505   -4.7243    0.4741 C   0  0  0  0  0  0  0  0  0  0  0  0
    8.7055   -5.2985    1.4472 O   0  0  0  0  0  0  0  0  0  0  0  0
    6.6873   -4.9826    0.2108 C   0  0  1  0  0  0  0  0  0  0  0  0
    6.5364   -6.2458   -0.6422 C   0  0  0  0  0  0  0  0  0  0  0  0
    5.9593   -5.1608    1.4699 N   0  0  0  0  0  0  0  0  0  0  0  0
    4.7643   -4.4274    1.7465 C   0  0  0  0  0  0  0  0  0  0  0  0
    4.8517   -3.2179    2.0970 O   0  0  0  0  0  0  0  0  0  0  0  0
   -3.2856    3.2702    2.6282 C   0  0  0  0  0  0  0  0  0  0  0  0
   -3.1535    3.9742    3.6657 O   0  0  0  0  0  0  0  0  0  0  0  0
   -4.5620    2.6331    2.4114 N   0  0  0  0  0  0  0  0  0  0  0  0
   -5.1818    2.1917    1.1501 C   0  0  2  0  0  0  0  0  0  0  0  0
   -4.4535    1.0044    0.5227 C   0  0  0  0  0  0  0  0  0  0  0  0
   -5.3644    3.3198    0.1600 C   0  0  0  0  0  0  0  0  0  0  0  0
   -4.3855    4.0644   -0.1268 O   0  0  0  0  0  0  0  0  0  0  0  0
   -6.6064    3.5290   -0.5399 N   0  0  0  0  0  0  0  0  0  0  0  0
   -7.9392    3.5190    0.0798 C   0  0  2  0  0  0  0  0  0  0  0  0
   -7.9414    4.3374    1.3762 C   0  0  0  0  0  0  0  0  0  0  0  0
   -8.4550    2.1144    0.2859 C   0  0  0  0  0  0  0  0  0  0  0  0
   -9.2950    1.8776    1.1942 O   0  0  0  0  0  0  0  0  0  0  0  0
   -8.0051    1.0294   -0.5395 N   0  0  0  0  0  0  0  0  0  0  0  0
   -8.6463    0.6672   -1.8057 C   0  0  2  0  0  0  0  0  0  0  0  0
   -8.2435    1.6413   -2.9149 C   0  0  0  0  0  0  0  0  0  0  0  0
  -10.1486    0.5828   -1.6493 C   0  0  0  0  0  0  0  0  0  0  0  0
  -10.8344    1.6432   -1.7106 O   0  0  0  0  0  0  0  0  0  0  0  0
  -10.8303   -0.6593   -1.3931 N   0  0  0  0  0  0  0  0  0  0  0  0
  -10.1691   -1.9080   -0.9795 C   0  0  2  0  0  0  0  0  0  0  0  0
  -11.2011   -3.0402   -0.9067 C   0  0  0  0  0  0  0  0  0  0  0  0
   -9.5280   -1.7272    0.3783 C   0  0  0  0  0  0  0  0  0  0  0  0
  -10.2328   -1.2660    1.3143 O   0  0  0  0  0  0  0  0  0  0  0  0
   -8.1526   -2.0568    0.6430 N   0  0  0  0  0  0  0  0  0  0  0  0
   -7.2960   -2.8799   -0.2219 C   0  0  2  0  0  0  0  0  0  0  0  0
   -7.8865   -4.2616   -0.3650 C   0  0  0  0  0  0  0  0  0  0  0  0
   -8.2382   -5.0262    0.7879 N   0  0  0  0  0  0  0  0  0  0  0  0
   -8.0502   -4.7552   -1.5124 O   0  0  0  0  0  0  0  0  0  0  0  0
   -5.8718   -2.9626    0.3663 C   0  0  0  0  0  0  0  0  0  0  0  0
   -4.7888   -4.0553   -0.6339 S   0  0  0  0  0  0  0  0  0  0  0  0
   -3.8336   -2.7533   -1.5027 C   0  0  0  0  0  0  0  0  0  0  0  0
    3.6347   -9.0823    2.7603 H   0  0  0  0  0  0  0  0  0  0  0  0
    2.8624   -9.2197    1.1263 H   0  0  0  0  0  0  0  0  0  0  0  0
    1.8513   -9.3707    2.6199 H   0  0  0  0  0  0  0  0  0  0  0  0
    4.2943   -6.9767    1.0620 H   0  0  0  0  0  0  0  0  0  0  0  0
    2.7925   -4.7428    2.4577 H   0  0  0  0  0  0  0  0  0  0  0  0
    2.7675   -3.3993    0.2753 H   0  0  0  0  0  0  0  0  0  0  0  0
    3.3339   -4.8586   -0.5908 H   0  0  0  0  0  0  0  0  0  0  0  0
    0.9975   -3.4308    1.9053 H   0  0  0  0  0  0  0  0  0  0  0  0
   -0.4176   -4.5240    1.9404 H   0  0  0  0  0  0  0  0  0  0  0  0
   -2.0911   -4.3308   -0.0416 H   0  0  0  0  0  0  0  0  0  0  0  0
   -2.6837   -0.3076   -1.4345 H   0  0  0  0  0  0  0  0  0  0  0  0
    0.7791   -1.2936    0.9155 H   0  0  0  0  0  0  0  0  0  0  0  0
    0.3358    0.8414   -1.0694 H   0  0  0  0  0  0  0  0  0  0  0  0
   -1.2788    1.4715   -0.6688 H   0  0  0  0  0  0  0  0  0  0  0  0
   -1.1409    1.7455    3.2347 H   0  0  0  0  0  0  0  0  0  0  0  0
   -2.0466    0.8547    1.9815 H   0  0  0  0  0  0  0  0  0  0  0  0
   -2.3871    2.9842    0.7122 H   0  0  0  0  0  0  0  0  0  0  0  0
   -0.7650    4.3605    2.8751 H   0  0  0  0  0  0  0  0  0  0  0  0
   -1.2246    3.8854   -0.8281 H   0  0  0  0  0  0  0  0  0  0  0  0
   -0.7005    5.5329   -2.5592 H   0  0  0  0  0  0  0  0  0  0  0  0
   -1.9960    6.1123   -1.4478 H   0  0  0  0  0  0  0  0  0  0  0  0
   -0.3221    6.7744   -1.3078 H   0  0  0  0  0  0  0  0  0  0  0  0
    1.0161    3.3464   -1.0531 H   0  0  0  0  0  0  0  0  0  0  0  0
    1.9553    6.1677   -2.1257 H   0  0  0  0  0  0  0  0  0  0  0  0
    3.3784    7.4444    0.2993 H   0  0  0  0  0  0  0  0  0  0  0  0
    1.6783    7.7809   -0.1941 H   0  0  0  0  0  0  0  0  0  0  0  0
    3.0197    8.2073   -1.3073 H   0  0  0  0  0  0  0  0  0  0  0  0
    3.8987    4.5532   -2.0070 H   0  0  0  0  0  0  0  0  0  0  0  0
    7.1181    5.3863   -1.3053 H   0  0  0  0  0  0  0  0  0  0  0  0
    7.3891    5.7725    1.2049 H   0  0  0  0  0  0  0  0  0  0  0  0
    5.7459    6.5087    1.2275 H   0  0  0  0  0  0  0  0  0  0  0  0
    7.0735    7.2789    0.2689 H   0  0  0  0  0  0  0  0  0  0  0  0
    4.9691    4.0876    0.4375 H   0  0  0  0  0  0  0  0  0  0  0  0
    7.9757    3.1353   -2.0296 H   0  0  0  0  0  0  0  0  0  0  0  0
    8.3326    3.0193    1.0284 H   0  0  0  0  0  0  0  0  0  0  0  0
    8.7506    4.3696   -0.1022 H   0  0  0  0  0  0  0  0  0  0  0  0
    9.7094    2.8713   -0.1319 H   0  0  0  0  0  0  0  0  0  0  0  0
    8.6427    0.9291   -1.9510 H   0  0  0  0  0  0  0  0  0  0  0  0
    9.7829    0.4769    0.9713 H   0  0  0  0  0  0  0  0  0  0  0  0
    8.6648   -0.8417    2.5444 H   0  0  0  0  0  0  0  0  0  0  0  0
    9.8249   -1.9775    1.7731 H   0  0  0  0  0  0  0  0  0  0  0  0
    8.0651   -2.0261    1.3521 H   0  0  0  0  0  0  0  0  0  0  0  0
   10.9226   -0.4297   -0.7637 H   0  0  0  0  0  0  0  0  0  0  0  0
    7.6280   -2.3248   -0.8303 H   0  0  0  0  0  0  0  0  0  0  0  0
    7.7549   -2.6555   -3.3537 H   0  0  0  0  0  0  0  0  0  0  0  0
    7.0193   -4.0193   -2.4699 H   0  0  0  0  0  0  0  0  0  0  0  0
    8.7182   -4.1571   -3.0522 H   0  0  0  0  0  0  0  0  0  0  0  0
    9.9975   -4.0469   -0.3096 H   0  0  0  0  0  0  0  0  0  0  0  0
    6.2432   -4.1282   -0.3416 H   0  0  0  0  0  0  0  0  0  0  0  0
    6.8296   -7.1479   -0.0612 H   0  0  0  0  0  0  0  0  0  0  0  0
    7.1735   -6.1916   -1.5471 H   0  0  0  0  0  0  0  0  0  0  0  0
    5.4830   -6.3579   -0.9699 H   0  0  0  0  0  0  0  0  0  0  0  0
    6.2576   -5.9021    2.1479 H   0  0  0  0  0  0  0  0  0  0  0  0
   -5.1851    2.5887    3.2504 H   0  0  0  0  0  0  0  0  0  0  0  0
   -6.1790    1.7990    1.4177 H   0  0  0  0  0  0  0  0  0  0  0  0
   -5.0850    0.5415   -0.2647 H   0  0  0  0  0  0  0  0  0  0  0  0
   -3.5215    1.3139    0.0237 H   0  0  0  0  0  0  0  0  0  0  0  0
   -4.2362    0.2340    1.2892 H   0  0  0  0  0  0  0  0  0  0  0  0
   -6.5366    3.9740   -1.4823 H   0  0  0  0  0  0  0  0  0  0  0  0
   -8.6484    4.0153   -0.6169 H   0  0  0  0  0  0  0  0  0  0  0  0
   -7.5132    5.3444    1.1885 H   0  0  0  0  0  0  0  0  0  0  0  0
   -8.9794    4.4671    1.7468 H   0  0  0  0  0  0  0  0  0  0  0  0
   -7.3451    3.8386    2.1696 H   0  0  0  0  0  0  0  0  0  0  0  0
   -7.3655    0.3318   -0.1039 H   0  0  0  0  0  0  0  0  0  0  0  0
   -8.2536   -0.3223   -2.1200 H   0  0  0  0  0  0  0  0  0  0  0  0
   -7.1358    1.6743   -3.0068 H   0  0  0  0  0  0  0  0  0  0  0  0
   -8.6080    2.6657   -2.7030 H   0  0  0  0  0  0  0  0  0  0  0  0
   -8.6661    1.3006   -3.8842 H   0  0  0  0  0  0  0  0  0  0  0  0
  -11.8757   -0.6265   -1.3967 H   0  0  0  0  0  0  0  0  0  0  0  0
   -9.4268   -2.1954   -1.7507 H   0  0  0  0  0  0  0  0  0  0  0  0
  -10.7160   -3.9936   -0.6191 H   0  0  0  0  0  0  0  0  0  0  0  0
  -11.9896   -2.8084   -0.1607 H   0  0  0  0  0  0  0  0  0  0  0  0
  -11.6831   -3.1811   -1.8957 H   0  0  0  0  0  0  0  0  0  0  0  0
   -7.7718   -1.7397    1.5628 H   0  0  0  0  0  0  0  0  0  0  0  0
   -7.2151   -2.3953   -1.2185 H   0  0  0  0  0  0  0  0  0  0  0  0
   -8.1852   -4.6032    1.7419 H   0  0  0  0  0  0  0  0  0  0  0  0
   -8.5937   -6.0007    0.6830 H   0  0  0  0  0  0  0  0  0  0  0  0
   -5.4403   -1.9446    0.4548 H   0  0  0  0  0  0  0  0  0  0  0  0
   -5.9203   -3.3840    1.3932 H   0  0  0  0  0  0  0  0  0  0  0  0
   -3.5307   -3.1562   -2.4916 H   0  0  0  0  0  0  0  0  0  0  0  0
   -4.4914   -1.8762   -1.6970 H   0  0  0  0  0  0  0  0  0  0  0  0
  1  2  1  0
  2  3  2  0
  2  4  1  0
  4  5  1  0
  5  6  1  0
  6  7  1  0
  7  8  1  0
  8  9  1  0
  9 10  1  0
 10 11  2  0
 11 12  1  0
 12 13  2  0
 13 14  1  0
 13 15  1  0
 15 16  1  0
 16 17  1  0
 17 18  1  0
 18 19  1  0
 19 20  1  0
 20 21  2  0
 20 22  1  0
 22 23  1  0
 22 24  1  0
 24 25  1  0
 25 26  2  0
 25 27  1  0
 27 28  1  0
 27 29  1  0
 29 30  1  0
 30 31  2  0
 30 32  1  0
 32 33  1  0
 32 34  1  0
 34 35  1  0
 35 36  2  0
 35 37  1  0
 37 38  1  0
 37 39  1  0
 39 40  1  0
 40 41  2  0
 40 42  1  0
 42 43  1  0
 42 44  1  0
 44 45  1  0
 45 46  2  0
 45 47  1  0
 47 48  1  0
 47 49  1  0
 49 50  1  0
 50 51  2  0
 50 52  1  0
 52 53  1  0
 52 54  1  0
 54 55  1  0
 55 56  2  0
 18 57  1  0
 57 58  2  0
 57 59  1  0
 59 60  1  0
 60 61  1  0
 60 62  1  0
 62 63  2  0
 62 64  1  0
 64 65  1  0
 65 66  1  0
 65 67  1  0
 67 68  2  0
 67 69  1  0
 69 70  1  0
 70 71  1  0
 70 72  1  0
 72 73  2  0
 72 74  1  0
 74 75  1  0
 75 76  1  0
 75 77  1  0
 77 78  2  0
 77 79  1  0
 79 80  1  0
 80 81  1  0
 81 82  1  0
 81 83  2  0
 80 84  1  0
 84 85  1  0
 85 86  1  0
 55  5  1  0
 14  9  2  0
 86 11  1  0
  1 87  1  0
  1 88  1  0
  1 89  1  0
  4 90  1  0
  5 91  1  1
  6 92  1  0
  6 93  1  0
  8 94  1  0
  8 95  1  0
 10 96  1  0
 12 97  1  0
 14 98  1  0
 15 99  1  0
 15100  1  0
 17101  1  0
 17102  1  0
 18103  1  6
 19104  1  0
 22105  1  6
 23106  1  0
 23107  1  0
 23108  1  0
 24109  1  0
 27110  1  6
 28111  1  0
 28112  1  0
 28113  1  0
 29114  1  0
 32115  1  6
 33116  1  0
 33117  1  0
 33118  1  0
 34119  1  0
 37120  1  6
 38121  1  0
 38122  1  0
 38123  1  0
 39124  1  0
 42125  1  1
 43126  1  0
 43127  1  0
 43128  1  0
 44129  1  0
 47130  1  1
 48131  1  0
 48132  1  0
 48133  1  0
 49134  1  0
 52135  1  6
 53136  1  0
 53137  1  0
 53138  1  0
 54139  1  0
 59140  1  0
 60141  1  1
 61142  1  0
 61143  1  0
 61144  1  0
 64145  1  0
 65146  1  6
 66147  1  0
 66148  1  0
 66149  1  0
 69150  1  0
 70151  1  6
 71152  1  0
 71153  1  0
 71154  1  0
 74155  1  0
 75156  1  6
 76157  1  0
 76158  1  0
 76159  1  0
 79160  1  0
 80161  1  6
 82162  1  0
 82163  1  0
 84164  1  0
 84165  1  0
 86166  1  0
 86167  1  0
M  END
