
     RDKit          3D

187189  0  0  0  0  0  0  0  0999 V2000
    4.0956   -7.9125    2.5393 C   0  0  0  0  0  0  0  0  0  0  0  0
    4.1194   -6.4128    2.5174 C   0  0  0  0  0  0  0  0  0  0  0  0
    3.6002   -5.7737    3.4672 O   0  0  0  0  0  0  0  0  0  0  0  0
    4.7450   -5.6861    1.4463 N   0  0  0  0  0  0  0  0  0  0  0  0
    5.0066   -6.2556    0.1167 C   0  0  1  0  0  0  0  0  0  0  0  0
    3.7006   -6.3996   -0.7002 C   0  0  0  0  0  0  0  0  0  0  0  0
    2.9680   -4.8387   -1.3289 S   0  0  0  0  0  0  0  0  0  0  0  0
    2.2986   -4.1987    0.2483 C   0  0  0  0  0  0  0  0  0  0  0  0
    1.0348   -3.4222   -0.0052 C   0  0  0  0  0  0  0  0  0  0  0  0
   -0.1781   -3.8140    0.5799 C   0  0  0  0  0  0  0  0  0  0  0  0
   -1.3536   -3.0888    0.3350 C   0  0  0  0  0  0  0  0  0  0  0  0
   -1.3034   -1.9516   -0.4884 C   0  0  0  0  0  0  0  0  0  0  0  0
   -0.1019   -1.5535   -1.0872 C   0  0  0  0  0  0  0  0  0  0  0  0
    1.0648   -2.2898   -0.8364 C   0  0  0  0  0  0  0  0  0  0  0  0
   -0.0662   -0.3720   -2.0176 C   0  0  0  0  0  0  0  0  0  0  0  0
    0.8090    1.0508   -1.2694 S   0  0  0  0  0  0  0  0  0  0  0  0
   -0.6271    1.7608   -0.3820 C   0  0  0  0  0  0  0  0  0  0  0  0
   -0.4632    3.2845   -0.2369 C   0  0  2  0  0  0  0  0  0  0  0  0
    0.5974    3.6060    0.7225 N   0  0  0  0  0  0  0  0  0  0  0  0
    1.3687    4.8238    0.7337 C   0  0  0  0  0  0  0  0  0  0  0  0
    1.9869    5.1292    1.7927 O   0  0  0  0  0  0  0  0  0  0  0  0
    1.5653    5.6903   -0.4966 C   0  0  1  0  0  0  0  0  0  0  0  0
    1.7246    7.1722   -0.1273 C   0  0  0  0  0  0  0  0  0  0  0  0
    2.7095    5.2634   -1.3198 N   0  0  0  0  0  0  0  0  0  0  0  0
    3.9743    4.8356   -0.7718 C   0  0  0  0  0  0  0  0  0  0  0  0
    3.9976    3.9631    0.1335 O   0  0  0  0  0  0  0  0  0  0  0  0
    5.2821    5.4616   -1.1976 C   0  0  1  0  0  0  0  0  0  0  0  0
    5.3093    5.8853   -2.6695 C   0  0  0  0  0  0  0  0  0  0  0  0
    5.5404    6.6298   -0.3453 N   0  0  0  0  0  0  0  0  0  0  0  0
    6.2407    6.5371    0.9055 C   0  0  0  0  0  0  0  0  0  0  0  0
    5.7765    7.1517    1.9077 O   0  0  0  0  0  0  0  0  0  0  0  0
    7.5020    5.7124    1.0519 C   0  0  1  0  0  0  0  0  0  0  0  0
    8.5724    6.5145    1.8099 C   0  0  0  0  0  0  0  0  0  0  0  0
    7.2062    4.4603    1.7606 N   0  0  0  0  0  0  0  0  0  0  0  0
    8.1331    3.3680    1.9051 C   0  0  0  0  0  0  0  0  0  0  0  0
    7.9166    2.5135    2.8078 O   0  0  0  0  0  0  0  0  0  0  0  0
    9.3202    3.1803    0.9776 C   0  0  1  0  0  0  0  0  0  0  0  0
   10.5810    2.7412    1.7339 C   0  0  0  0  0  0  0  0  0  0  0  0
    8.9876    2.2407   -0.0976 N   0  0  0  0  0  0  0  0  0  0  0  0
    9.0522    0.8112    0.0523 C   0  0  0  0  0  0  0  0  0  0  0  0
    8.4880    0.2663    1.0365 O   0  0  0  0  0  0  0  0  0  0  0  0
    9.8323   -0.0567   -0.9067 C   0  0  1  0  0  0  0  0  0  0  0  0
   10.4962    0.7409   -2.0392 C   0  0  0  0  0  0  0  0  0  0  0  0
   10.8715   -0.7690   -0.1594 N   0  0  0  0  0  0  0  0  0  0  0  0
   10.9978   -2.1996   -0.0494 C   0  0  0  0  0  0  0  0  0  0  0  0
   12.1172   -2.6798    0.2729 O   0  0  0  0  0  0  0  0  0  0  0  0
    9.8479   -3.1445   -0.3380 C   0  0  1  0  0  0  0  0  0  0  0  0
    9.9741   -3.6797   -1.7632 C   0  0  0  0  0  0  0  0  0  0  0  0
    9.8312   -4.2527    0.6291 N   0  0  0  0  0  0  0  0  0  0  0  0
    8.6540   -5.0447    0.8071 C   0  0  0  0  0  0  0  0  0  0  0  0
    7.8431   -4.7402    1.7229 O   0  0  0  0  0  0  0  0  0  0  0  0
    8.4130   -6.2676   -0.0509 C   0  0  1  0  0  0  0  0  0  0  0  0
    8.1734   -7.5083    0.8103 C   0  0  0  0  0  0  0  0  0  0  0  0
    7.3036   -6.0533   -0.9876 N   0  0  0  0  0  0  0  0  0  0  0  0
    6.0605   -5.4536   -0.6081 C   0  0  0  0  0  0  0  0  0  0  0  0
    5.8639   -4.2343   -0.8743 O   0  0  0  0  0  0  0  0  0  0  0  0
   -1.7578    3.9005    0.2165 C   0  0  0  0  0  0  0  0  0  0  0  0
   -2.3309    3.4785    1.2543 O   0  0  0  0  0  0  0  0  0  0  0  0
   -2.3648    4.9467   -0.5499 N   0  0  0  0  0  0  0  0  0  0  0  0
   -3.7561    4.8650   -0.9960 C   0  0  2  0  0  0  0  0  0  0  0  0
   -3.7779    4.4589   -2.4755 C   0  0  0  0  0  0  0  0  0  0  0  0
   -4.4674    6.1903   -0.7974 C   0  0  0  0  0  0  0  0  0  0  0  0
   -3.7804    7.2457   -0.7006 O   0  0  0  0  0  0  0  0  0  0  0  0
   -5.8991    6.2943   -0.7121 N   0  0  0  0  0  0  0  0  0  0  0  0
   -6.8629    5.2061   -0.9256 C   0  0  2  0  0  0  0  0  0  0  0  0
   -7.8331    5.5803   -2.0585 C   0  0  0  0  0  0  0  0  0  0  0  0
   -7.5641    4.8787    0.3672 C   0  0  0  0  0  0  0  0  0  0  0  0
   -6.9882    4.1170    1.1826 O   0  0  0  0  0  0  0  0  0  0  0  0
   -8.8354    5.4596    0.7007 N   0  0  0  0  0  0  0  0  0  0  0  0
   -9.8404    4.8291    1.5621 C   0  0  2  0  0  0  0  0  0  0  0  0
   -9.3588    4.6812    3.0171 C   0  0  0  0  0  0  0  0  0  0  0  0
  -10.3416    3.5286    0.9759 C   0  0  0  0  0  0  0  0  0  0  0  0
  -11.3660    3.5537    0.2422 O   0  0  0  0  0  0  0  0  0  0  0  0
   -9.6891    2.2764    1.2536 N   0  0  0  0  0  0  0  0  0  0  0  0
  -10.3818    0.9876    1.0974 C   0  0  2  0  0  0  0  0  0  0  0  0
  -11.5661    0.9148    2.0709 C   0  0  0  0  0  0  0  0  0  0  0  0
   -9.4589   -0.1894    1.3772 C   0  0  0  0  0  0  0  0  0  0  0  0
   -8.3716   -0.0023    1.9836 O   0  0  0  0  0  0  0  0  0  0  0  0
   -9.8363   -1.5485    1.0647 N   0  0  0  0  0  0  0  0  0  0  0  0
  -10.8367   -1.9440    0.0681 C   0  0  2  0  0  0  0  0  0  0  0  0
  -11.7825   -2.9722    0.7005 C   0  0  0  0  0  0  0  0  0  0  0  0
  -10.1207   -2.4529   -1.1558 C   0  0  0  0  0  0  0  0  0  0  0  0
   -9.3611   -1.6608   -1.7841 O   0  0  0  0  0  0  0  0  0  0  0  0
  -10.3132   -3.7823   -1.6676 N   0  0  0  0  0  0  0  0  0  0  0  0
   -9.2814   -4.8288   -1.5819 C   0  0  2  0  0  0  0  0  0  0  0  0
   -9.4319   -5.5703   -0.2590 C   0  0  0  0  0  0  0  0  0  0  0  0
   -7.9005   -4.2619   -1.8659 C   0  0  0  0  0  0  0  0  0  0  0  0
   -7.6940   -3.7546   -3.0031 O   0  0  0  0  0  0  0  0  0  0  0  0
   -6.8359   -4.2015   -0.8932 N   0  0  0  0  0  0  0  0  0  0  0  0
   -6.2319   -5.3819   -0.2485 C   0  0  1  0  0  0  0  0  0  0  0  0
   -5.9634   -6.4797   -1.2591 C   0  0  0  0  0  0  0  0  0  0  0  0
   -6.4162   -7.8084   -1.0046 N   0  0  0  0  0  0  0  0  0  0  0  0
   -5.3726   -6.2187   -2.3376 O   0  0  0  0  0  0  0  0  0  0  0  0
   -4.9589   -4.9935    0.5431 C   0  0  0  0  0  0  0  0  0  0  0  0
   -3.5974   -4.3800   -0.5108 S   0  0  0  0  0  0  0  0  0  0  0  0
   -2.6783   -3.5731    0.8532 C   0  0  0  0  0  0  0  0  0  0  0  0
    5.1322   -8.3023    2.5518 H   0  0  0  0  0  0  0  0  0  0  0  0
    3.5610   -8.3137    1.6564 H   0  0  0  0  0  0  0  0  0  0  0  0
    3.5717   -8.2701    3.4535 H   0  0  0  0  0  0  0  0  0  0  0  0
    4.9770   -4.6806    1.6255 H   0  0  0  0  0  0  0  0  0  0  0  0
    5.4068   -7.2809    0.2485 H   0  0  0  0  0  0  0  0  0  0  0  0
    3.9237   -7.0280   -1.5944 H   0  0  0  0  0  0  0  0  0  0  0  0
    2.9305   -6.9559   -0.1210 H   0  0  0  0  0  0  0  0  0  0  0  0
    2.1061   -5.0338    0.9536 H   0  0  0  0  0  0  0  0  0  0  0  0
    3.0496   -3.5201    0.6986 H   0  0  0  0  0  0  0  0  0  0  0  0
   -0.2162   -4.6913    1.2100 H   0  0  0  0  0  0  0  0  0  0  0  0
   -2.2174   -1.3925   -0.6802 H   0  0  0  0  0  0  0  0  0  0  0  0
    1.9976   -1.9802   -1.2914 H   0  0  0  0  0  0  0  0  0  0  0  0
    0.4804   -0.6633   -2.9376 H   0  0  0  0  0  0  0  0  0  0  0  0
   -1.0831   -0.0873   -2.3547 H   0  0  0  0  0  0  0  0  0  0  0  0
   -1.5654    1.5575   -0.9397 H   0  0  0  0  0  0  0  0  0  0  0  0
   -0.7169    1.2724    0.6107 H   0  0  0  0  0  0  0  0  0  0  0  0
   -0.2080    3.6702   -1.2441 H   0  0  0  0  0  0  0  0  0  0  0  0
    0.6490    3.0239    1.5945 H   0  0  0  0  0  0  0  0  0  0  0  0
    0.6560    5.6491   -1.1311 H   0  0  0  0  0  0  0  0  0  0  0  0
    0.8365    7.5168    0.4468 H   0  0  0  0  0  0  0  0  0  0  0  0
    1.8060    7.7863   -1.0476 H   0  0  0  0  0  0  0  0  0  0  0  0
    2.6405    7.3360    0.4870 H   0  0  0  0  0  0  0  0  0  0  0  0
    2.6952    5.6060   -2.3034 H   0  0  0  0  0  0  0  0  0  0  0  0
    6.0807    4.6982   -1.0717 H   0  0  0  0  0  0  0  0  0  0  0  0
    6.3370    6.2105   -2.9428 H   0  0  0  0  0  0  0  0  0  0  0  0
    5.0358    5.0293   -3.3212 H   0  0  0  0  0  0  0  0  0  0  0  0
    4.6235    6.7368   -2.8640 H   0  0  0  0  0  0  0  0  0  0  0  0
    4.9420    7.4743   -0.4906 H   0  0  0  0  0  0  0  0  0  0  0  0
    7.8875    5.4847    0.0346 H   0  0  0  0  0  0  0  0  0  0  0  0
    8.1913    6.8401    2.8033 H   0  0  0  0  0  0  0  0  0  0  0  0
    8.8692    7.4049    1.2205 H   0  0  0  0  0  0  0  0  0  0  0  0
    9.4736    5.8998    1.9819 H   0  0  0  0  0  0  0  0  0  0  0  0
    6.3092    4.3843    2.2936 H   0  0  0  0  0  0  0  0  0  0  0  0
    9.5821    4.1436    0.5024 H   0  0  0  0  0  0  0  0  0  0  0  0
   10.4136    1.7918    2.2871 H   0  0  0  0  0  0  0  0  0  0  0  0
   11.4157    2.5892    1.0191 H   0  0  0  0  0  0  0  0  0  0  0  0
   10.8844    3.5266    2.4616 H   0  0  0  0  0  0  0  0  0  0  0  0
    8.8207    2.6340   -1.0516 H   0  0  0  0  0  0  0  0  0  0  0  0
    9.1203   -0.7580   -1.3909 H   0  0  0  0  0  0  0  0  0  0  0  0
   11.1830    1.5067   -1.6252 H   0  0  0  0  0  0  0  0  0  0  0  0
   11.0844    0.0495   -2.6833 H   0  0  0  0  0  0  0  0  0  0  0  0
    9.7307    1.2331   -2.6754 H   0  0  0  0  0  0  0  0  0  0  0  0
   11.6326   -0.1930    0.2680 H   0  0  0  0  0  0  0  0  0  0  0  0
    8.8856   -2.5928   -0.2397 H   0  0  0  0  0  0  0  0  0  0  0  0
    9.0352   -4.1869   -2.0617 H   0  0  0  0  0  0  0  0  0  0  0  0
   10.8181   -4.4077   -1.8292 H   0  0  0  0  0  0  0  0  0  0  0  0
   10.1586   -2.8530   -2.4853 H   0  0  0  0  0  0  0  0  0  0  0  0
   10.5210   -4.2621    1.4126 H   0  0  0  0  0  0  0  0  0  0  0  0
    9.3359   -6.4587   -0.6408 H   0  0  0  0  0  0  0  0  0  0  0  0
    9.0881   -7.7412    1.3952 H   0  0  0  0  0  0  0  0  0  0  0  0
    7.3344   -7.3502    1.5189 H   0  0  0  0  0  0  0  0  0  0  0  0
    7.9352   -8.3801    0.1575 H   0  0  0  0  0  0  0  0  0  0  0  0
    7.5208   -6.0708   -2.0117 H   0  0  0  0  0  0  0  0  0  0  0  0
   -1.7430    5.6634   -0.9917 H   0  0  0  0  0  0  0  0  0  0  0  0
   -4.2880    4.0881   -0.3961 H   0  0  0  0  0  0  0  0  0  0  0  0
   -3.3280    3.4526   -2.5864 H   0  0  0  0  0  0  0  0  0  0  0  0
   -3.1977    5.1860   -3.0818 H   0  0  0  0  0  0  0  0  0  0  0  0
   -4.8140    4.4228   -2.8727 H   0  0  0  0  0  0  0  0  0  0  0  0
   -6.2891    7.2313   -0.4439 H   0  0  0  0  0  0  0  0  0  0  0  0
   -6.3497    4.2841   -1.2485 H   0  0  0  0  0  0  0  0  0  0  0  0
   -8.6128    4.7915   -2.1646 H   0  0  0  0  0  0  0  0  0  0  0  0
   -8.3185    6.5614   -1.8654 H   0  0  0  0  0  0  0  0  0  0  0  0
   -7.2695    5.6558   -3.0147 H   0  0  0  0  0  0  0  0  0  0  0  0
   -9.0869    6.3874    0.2885 H   0  0  0  0  0  0  0  0  0  0  0  0
  -10.7222    5.5157    1.6116 H   0  0  0  0  0  0  0  0  0  0  0  0
  -10.2060    4.3446    3.6540 H   0  0  0  0  0  0  0  0  0  0  0  0
   -8.5345    3.9433    3.1115 H   0  0  0  0  0  0  0  0  0  0  0  0
   -9.0079    5.6640    3.3957 H   0  0  0  0  0  0  0  0  0  0  0  0
   -8.6688    2.3020    1.4790 H   0  0  0  0  0  0  0  0  0  0  0  0
  -10.7512    0.9293    0.0547 H   0  0  0  0  0  0  0  0  0  0  0  0
  -12.2957    1.7295    1.8735 H   0  0  0  0  0  0  0  0  0  0  0  0
  -12.1104   -0.0478    1.9513 H   0  0  0  0  0  0  0  0  0  0  0  0
  -11.2104    0.9984    3.1212 H   0  0  0  0  0  0  0  0  0  0  0  0
   -9.2265   -2.3017    1.4549 H   0  0  0  0  0  0  0  0  0  0  0  0
  -11.4696   -1.0915   -0.2407 H   0  0  0  0  0  0  0  0  0  0  0  0
  -12.5458   -3.3197   -0.0298 H   0  0  0  0  0  0  0  0  0  0  0  0
  -12.3187   -2.5162    1.5591 H   0  0  0  0  0  0  0  0  0  0  0  0
  -11.2131   -3.8473    1.0880 H   0  0  0  0  0  0  0  0  0  0  0  0
  -11.2948   -4.0947   -1.8456 H   0  0  0  0  0  0  0  0  0  0  0  0
   -9.4818   -5.5693   -2.3924 H   0  0  0  0  0  0  0  0  0  0  0  0
  -10.4960   -5.8505   -0.1045 H   0  0  0  0  0  0  0  0  0  0  0  0
   -9.1050   -4.9380    0.5959 H   0  0  0  0  0  0  0  0  0  0  0  0
   -8.8649   -6.5231   -0.2862 H   0  0  0  0  0  0  0  0  0  0  0  0
   -6.2701   -3.3275   -0.9295 H   0  0  0  0  0  0  0  0  0  0  0  0
   -6.9323   -5.7620    0.5210 H   0  0  0  0  0  0  0  0  0  0  0  0
   -6.8791   -8.0516   -0.1007 H   0  0  0  0  0  0  0  0  0  0  0  0
   -6.3683   -8.5406   -1.7476 H   0  0  0  0  0  0  0  0  0  0  0  0
   -5.2474   -4.2169    1.2797 H   0  0  0  0  0  0  0  0  0  0  0  0
   -4.5929   -5.8887    1.1001 H   0  0  0  0  0  0  0  0  0  0  0  0
   -3.2675   -2.7121    1.2299 H   0  0  0  0  0  0  0  0  0  0  0  0
   -2.5408   -4.2824    1.6966 H   0  0  0  0  0  0  0  0  0  0  0  0
  1  2  1  0
  2  3  2  0
  2  4  1  0
  4  5  1  0
  5  6  1  0
  6  7  1  0
  7  8  1  0
  8  9  1  0
  9 10  1  0
 10 11  2  0
 11 12  1  0
 12 13  2  0
 13 14  1  0
 13 15  1  0
 15 16  1  0
 16 17  1  0
 17 18  1  0
 18 19  1  0
 19 20  1  0
 20 21  2  0
 20 22  1  0
 22 23  1  0
 22 24  1  0
 24 25  1  0
 25 26  2  0
 25 27  1  0
 27 28  1  0
 27 29  1  0
 29 30  1  0
 30 31  2  0
 30 32  1  0
 32 33  1  0
 32 34  1  0
 34 35  1  0
 35 36  2  0
 35 37  1  0
 37 38  1  0
 37 39  1  0
 39 40  1  0
 40 41  2  0
 40 42  1  0
 42 43  1  0
 42 44  1  0
 44 45  1  0
 45 46  2  0
 45 47  1  0
 47 48  1  0
 47 49  1  0
 49 50  1  0
 50 51  2  0
 50 52  1  0
 52 53  1  0
 52 54  1  0
 54 55  1  0
 55 56  2  0
 18 57  1  0
 57 58  2  0
 57 59  1  0
 59 60  1  0
 60 61  1  0
 60 62  1  0
 62 63  2  0
 62 64  1  0
 64 65  1  0
 65 66  1  0
 65 67  1  0
 67 68  2  0
 67 69  1  0
 69 70  1  0
 70 71  1  0
 70 72  1  0
 72 73  2  0
 72 74  1  0
 74 75  1  0
 75 76  1  0
 75 77  1  0
 77 78  2  0
 77 79  1  0
 79 80  1  0
 80 81  1  0
 80 82  1  0
 82 83  2  0
 82 84  1  0
 84 85  1  0
 85 86  1  0
 85 87  1  0
 87 88  2  0
 87 89  1  0
 89 90  1  0
 90 91  1  0
 91 92  1  0
 91 93  2  0
 90 94  1  0
 94 95  1  0
 95 96  1  0
 55  5  1  0
 14  9  2  0
 96 11  1  0
  1 97  1  0
  1 98  1  0
  1 99  1  0
  4100  1  0
  5101  1  1
  6102  1  0
  6103  1  0
  8104  1  0
  8105  1  0
 10106  1  0
 12107  1  0
 14108  1  0
 15109  1  0
 15110  1  0
 17111  1  0
 17112  1  0
 18113  1  6
 19114  1  0
 22115  1  6
 23116  1  0
 23117  1  0
 23118  1  0
 24119  1  0
 27120  1  6
 28121  1  0
 28122  1  0
 28123  1  0
 29124  1  0
 32125  1  6
 33126  1  0
 33127  1  0
 33128  1  0
 34129  1  0
 37130  1  6
 38131  1  0
 38132  1  0
 38133  1  0
 39134  1  0
 42135  1  6
 43136  1  0
 43137  1  0
 43138  1  0
 44139  1  0
 47140  1  6
 48141  1  0
 48142  1  0
 48143  1  0
 49144  1  0
 52145  1  6
 53146  1  0
 53147  1  0
 53148  1  0
 54149  1  0
 59150  1  0
 60151  1  1
 61152  1  0
 61153  1  0
 61154  1  0
 64155  1  0
 65156  1  6
 66157  1  0
 66158  1  0
 66159  1  0
 69160  1  0
 70161  1  1
 71162  1  0
 71163  1  0
 71164  1  0
 74165  1  0
 75166  1  6
 76167  1  0
 76168  1  0
 76169  1  0
 79170  1  0
 80171  1  6
 81172  1  0
 81173  1  0
 81174  1  0
 84175  1  0
 85176  1  6
 86177  1  0
 86178  1  0
 86179  1  0
 89180  1  0
 90181  1  1
 92182  1  0
 92183  1  0
 94184  1  0
 94185  1  0
 96186  1  0
 96187  1  0
M  END
