
     RDKit          3D

207209  0  0  0  0  0  0  0  0999 V2000
   -6.2197    7.1824   -2.0090 C   0  0  0  0  0  0  0  0  0  0  0  0
   -5.2018    6.4166   -2.8032 C   0  0  0  0  0  0  0  0  0  0  0  0
   -4.7456    6.9265   -3.8597 O   0  0  0  0  0  0  0  0  0  0  0  0
   -4.7247    5.1281   -2.3799 N   0  0  0  0  0  0  0  0  0  0  0  0
   -5.0715    4.5085   -1.0895 C   0  0  2  0  0  0  0  0  0  0  0  0
   -4.0916    3.3616   -0.7688 C   0  0  0  0  0  0  0  0  0  0  0  0
   -4.0061    3.0540    1.0357 S   0  0  0  0  0  0  0  0  0  0  0  0
   -2.5247    4.0829    1.3497 C   0  0  0  0  0  0  0  0  0  0  0  0
   -1.2865    3.3316    0.9347 C   0  0  0  0  0  0  0  0  0  0  0  0
   -0.5319    3.7390   -0.1775 C   0  0  0  0  0  0  0  0  0  0  0  0
    0.5826    2.9940   -0.5939 C   0  0  0  0  0  0  0  0  0  0  0  0
    0.9347    1.8311    0.1060 C   0  0  0  0  0  0  0  0  0  0  0  0
    0.1926    1.4181    1.2247 C   0  0  0  0  0  0  0  0  0  0  0  0
   -0.8950    2.1939    1.6514 C   0  0  0  0  0  0  0  0  0  0  0  0
    0.6356    0.2018    2.0001 C   0  0  0  0  0  0  0  0  0  0  0  0
   -0.7494   -0.8452    2.5908 S   0  0  0  0  0  0  0  0  0  0  0  0
   -1.4801   -1.3052    0.9693 C   0  0  0  0  0  0  0  0  0  0  0  0
   -0.6880   -2.4102    0.2373 C   0  0  2  0  0  0  0  0  0  0  0  0
   -1.2902   -2.7085   -1.0719 N   0  0  0  0  0  0  0  0  0  0  0  0
   -2.7046   -2.7907   -1.3092 C   0  0  0  0  0  0  0  0  0  0  0  0
   -3.3687   -1.7294   -1.4536 O   0  0  0  0  0  0  0  0  0  0  0  0
   -3.4216   -4.1219   -1.3514 C   0  0  1  0  0  0  0  0  0  0  0  0
   -2.4854   -5.2543   -1.7812 C   0  0  0  0  0  0  0  0  0  0  0  0
   -4.0037   -4.4191   -0.0395 N   0  0  0  0  0  0  0  0  0  0  0  0
   -4.9520   -5.4694    0.2050 C   0  0  0  0  0  0  0  0  0  0  0  0
   -5.0082   -5.9691    1.3668 O   0  0  0  0  0  0  0  0  0  0  0  0
   -5.8881   -5.9738   -0.8757 C   0  0  1  0  0  0  0  0  0  0  0  0
   -6.7948   -7.1285   -0.4211 C   0  0  0  0  0  0  0  0  0  0  0  0
   -6.6877   -4.8862   -1.4610 N   0  0  0  0  0  0  0  0  0  0  0  0
   -7.7132   -4.1019   -0.8222 C   0  0  0  0  0  0  0  0  0  0  0  0
   -8.4768   -3.4160   -1.5549 O   0  0  0  0  0  0  0  0  0  0  0  0
   -7.9075   -4.0372    0.6781 C   0  0  1  0  0  0  0  0  0  0  0  0
   -7.6456   -2.6272    1.2239 C   0  0  0  0  0  0  0  0  0  0  0  0
   -9.2221   -4.5769    1.0588 N   0  0  0  0  0  0  0  0  0  0  0  0
  -10.3999   -3.8076    1.3617 C   0  0  0  0  0  0  0  0  0  0  0  0
  -11.0250   -4.0541    2.4289 O   0  0  0  0  0  0  0  0  0  0  0  0
  -11.0093   -2.8541    0.3578 C   0  0  1  0  0  0  0  0  0  0  0  0
  -11.8027   -3.6415   -0.6839 C   0  0  0  0  0  0  0  0  0  0  0  0
  -11.8989   -1.9045    1.0370 N   0  0  0  0  0  0  0  0  0  0  0  0
  -11.6556   -0.4936    1.2012 C   0  0  0  0  0  0  0  0  0  0  0  0
  -12.2742    0.1151    2.1161 O   0  0  0  0  0  0  0  0  0  0  0  0
  -10.7409    0.2819    0.2780 C   0  0  1  0  0  0  0  0  0  0  0  0
  -11.3147    0.3492   -1.1431 C   0  0  0  0  0  0  0  0  0  0  0  0
  -10.4645    1.6284    0.7933 N   0  0  0  0  0  0  0  0  0  0  0  0
  -11.3417    2.7466    0.6081 C   0  0  0  0  0  0  0  0  0  0  0  0
  -12.5564    2.6543    0.9412 O   0  0  0  0  0  0  0  0  0  0  0  0
  -10.7963    4.0347    0.0415 C   0  0  1  0  0  0  0  0  0  0  0  0
  -11.9049    4.9115   -0.5512 C   0  0  0  0  0  0  0  0  0  0  0  0
  -10.0816    4.7797    1.0789 N   0  0  0  0  0  0  0  0  0  0  0  0
   -8.9533    5.5923    0.7463 C   0  0  0  0  0  0  0  0  0  0  0  0
   -9.1428    6.7615    0.3122 O   0  0  0  0  0  0  0  0  0  0  0  0
   -7.5472    5.0749    0.9162 C   0  0  1  0  0  0  0  0  0  0  0  0
   -7.3072    4.6485    2.3628 C   0  0  0  0  0  0  0  0  0  0  0  0
   -7.3277    3.9393    0.0181 N   0  0  0  0  0  0  0  0  0  0  0  0
   -6.4801    3.9662   -1.1398 C   0  0  0  0  0  0  0  0  0  0  0  0
   -6.8751    3.3947   -2.1915 O   0  0  0  0  0  0  0  0  0  0  0  0
   -0.5591   -3.6951    1.0317 C   0  0  0  0  0  0  0  0  0  0  0  0
   -1.3080   -3.8813    2.0312 O   0  0  0  0  0  0  0  0  0  0  0  0
    0.3666   -4.7417    0.6738 N   0  0  0  0  0  0  0  0  0  0  0  0
    1.4182   -4.6511   -0.3492 C   0  0  2  0  0  0  0  0  0  0  0  0
    1.1977   -5.7107   -1.4350 C   0  0  0  0  0  0  0  0  0  0  0  0
    2.7739   -4.8489    0.2763 C   0  0  0  0  0  0  0  0  0  0  0  0
    3.6617   -3.9697    0.1080 O   0  0  0  0  0  0  0  0  0  0  0  0
    3.0891   -6.0609    0.9861 N   0  0  0  0  0  0  0  0  0  0  0  0
    4.4619   -6.5638    1.1066 C   0  0  2  0  0  0  0  0  0  0  0  0
    4.4746   -7.9462    1.7737 C   0  0  0  0  0  0  0  0  0  0  0  0
    5.3131   -5.6020    1.9048 C   0  0  0  0  0  0  0  0  0  0  0  0
    4.9861   -5.3587    3.1006 O   0  0  0  0  0  0  0  0  0  0  0  0
    6.4516   -4.9154    1.3459 N   0  0  0  0  0  0  0  0  0  0  0  0
    7.0747   -5.2187    0.0470 C   0  0  2  0  0  0  0  0  0  0  0  0
    7.8037   -6.5707    0.0985 C   0  0  0  0  0  0  0  0  0  0  0  0
    7.9739   -4.0790   -0.3787 C   0  0  0  0  0  0  0  0  0  0  0  0
    7.4472   -2.9631   -0.6286 O   0  0  0  0  0  0  0  0  0  0  0  0
    9.3817   -4.2406   -0.6094 N   0  0  0  0  0  0  0  0  0  0  0  0
   10.3810   -4.4816    0.4456 C   0  0  2  0  0  0  0  0  0  0  0  0
    9.9346   -3.9936    1.8323 C   0  0  0  0  0  0  0  0  0  0  0  0
   11.7088   -3.8492    0.0693 C   0  0  0  0  0  0  0  0  0  0  0  0
   12.6978   -4.6094   -0.1243 O   0  0  0  0  0  0  0  0  0  0  0  0
   11.9109   -2.4245   -0.0101 N   0  0  0  0  0  0  0  0  0  0  0  0
   10.8754   -1.4444   -0.3459 C   0  0  2  0  0  0  0  0  0  0  0  0
   10.9719   -1.0664   -1.8236 C   0  0  0  0  0  0  0  0  0  0  0  0
   10.9965   -0.2414    0.5533 C   0  0  0  0  0  0  0  0  0  0  0  0
   10.1487   -0.0702    1.4707 O   0  0  0  0  0  0  0  0  0  0  0  0
   12.0939    0.6679    0.4378 N   0  0  0  0  0  0  0  0  0  0  0  0
   11.9785    1.8890   -0.3700 C   0  0  2  0  0  0  0  0  0  0  0  0
   13.3248    2.6133   -0.4423 C   0  0  0  0  0  0  0  0  0  0  0  0
   10.9231    2.7979    0.1994 C   0  0  0  0  0  0  0  0  0  0  0  0
   10.8099    2.9218    1.4513 O   0  0  0  0  0  0  0  0  0  0  0  0
   10.0550    3.5291   -0.6802 N   0  0  0  0  0  0  0  0  0  0  0  0
    8.6944    3.8995   -0.2796 C   0  0  2  0  0  0  0  0  0  0  0  0
    7.8072    2.6484   -0.2616 C   0  0  0  0  0  0  0  0  0  0  0  0
    8.1137    4.9195   -1.2378 C   0  0  0  0  0  0  0  0  0  0  0  0
    8.1376    4.6562   -2.4722 O   0  0  0  0  0  0  0  0  0  0  0  0
    7.5024    6.1549   -0.8144 N   0  0  0  0  0  0  0  0  0  0  0  0
    7.2969    6.6436    0.5587 C   0  0  2  0  0  0  0  0  0  0  0  0
    8.6171    7.1717    1.1343 C   0  0  0  0  0  0  0  0  0  0  0  0
    6.6064    5.6207    1.4425 C   0  0  0  0  0  0  0  0  0  0  0  0
    7.1513    5.2727    2.5292 O   0  0  0  0  0  0  0  0  0  0  0  0
    5.3347    5.0381    1.1020 N   0  0  0  0  0  0  0  0  0  0  0  0
    4.4477    5.5141    0.0280 C   0  0  2  0  0  0  0  0  0  0  0  0
    3.9157    6.8822    0.3704 C   0  0  0  0  0  0  0  0  0  0  0  0
    4.0714    7.9668   -0.5441 N   0  0  0  0  0  0  0  0  0  0  0  0
    3.3278    7.0748    1.4711 O   0  0  0  0  0  0  0  0  0  0  0  0
    3.2951    4.5168   -0.1812 C   0  0  0  0  0  0  0  0  0  0  0  0
    2.1935    5.0504   -1.5453 S   0  0  0  0  0  0  0  0  0  0  0  0
    1.3837    3.4275   -1.8001 C   0  0  0  0  0  0  0  0  0  0  0  0
   -5.8034    7.4338   -1.0134 H   0  0  0  0  0  0  0  0  0  0  0  0
   -7.1422    6.5796   -1.8954 H   0  0  0  0  0  0  0  0  0  0  0  0
   -6.4846    8.1282   -2.5233 H   0  0  0  0  0  0  0  0  0  0  0  0
   -4.0287    4.6525   -3.0027 H   0  0  0  0  0  0  0  0  0  0  0  0
   -4.9626    5.2785   -0.2992 H   0  0  0  0  0  0  0  0  0  0  0  0
   -4.4064    2.4238   -1.2729 H   0  0  0  0  0  0  0  0  0  0  0  0
   -3.0812    3.5971   -1.1606 H   0  0  0  0  0  0  0  0  0  0  0  0
   -2.4678    4.3116    2.4334 H   0  0  0  0  0  0  0  0  0  0  0  0
   -2.6189    5.0498    0.8107 H   0  0  0  0  0  0  0  0  0  0  0  0
   -0.8069    4.6350   -0.7235 H   0  0  0  0  0  0  0  0  0  0  0  0
    1.7987    1.2548   -0.2064 H   0  0  0  0  0  0  0  0  0  0  0  0
   -1.4571    1.8988    2.5310 H   0  0  0  0  0  0  0  0  0  0  0  0
    1.2047    0.5498    2.8892 H   0  0  0  0  0  0  0  0  0  0  0  0
    1.3293   -0.4263    1.4032 H   0  0  0  0  0  0  0  0  0  0  0  0
   -2.5158   -1.6636    1.1746 H   0  0  0  0  0  0  0  0  0  0  0  0
   -1.5737   -0.4050    0.3180 H   0  0  0  0  0  0  0  0  0  0  0  0
    0.3257   -1.9997    0.0694 H   0  0  0  0  0  0  0  0  0  0  0  0
   -0.6540   -2.8556   -1.8898 H   0  0  0  0  0  0  0  0  0  0  0  0
   -4.2291   -4.0324   -2.1057 H   0  0  0  0  0  0  0  0  0  0  0  0
   -1.7424   -5.4486   -0.9811 H   0  0  0  0  0  0  0  0  0  0  0  0
   -3.0435   -6.1937   -1.9493 H   0  0  0  0  0  0  0  0  0  0  0  0
   -1.9708   -4.9842   -2.7253 H   0  0  0  0  0  0  0  0  0  0  0  0
   -3.6226   -3.9239    0.7995 H   0  0  0  0  0  0  0  0  0  0  0  0
   -5.2556   -6.3993   -1.6856 H   0  0  0  0  0  0  0  0  0  0  0  0
   -7.4624   -7.4358   -1.2552 H   0  0  0  0  0  0  0  0  0  0  0  0
   -6.1764   -8.0042   -0.1345 H   0  0  0  0  0  0  0  0  0  0  0  0
   -7.4188   -6.8416    0.4461 H   0  0  0  0  0  0  0  0  0  0  0  0
   -6.5774   -4.7435   -2.4925 H   0  0  0  0  0  0  0  0  0  0  0  0
   -7.1546   -4.6684    1.1775 H   0  0  0  0  0  0  0  0  0  0  0  0
   -7.9754   -2.5575    2.2852 H   0  0  0  0  0  0  0  0  0  0  0  0
   -6.5578   -2.4027    1.1758 H   0  0  0  0  0  0  0  0  0  0  0  0
   -8.1703   -1.8522    0.6338 H   0  0  0  0  0  0  0  0  0  0  0  0
   -9.2201   -5.5492    1.4360 H   0  0  0  0  0  0  0  0  0  0  0  0
  -10.2050   -2.3255   -0.1744 H   0  0  0  0  0  0  0  0  0  0  0  0
  -12.6672   -4.1601   -0.2103 H   0  0  0  0  0  0  0  0  0  0  0  0
  -12.1896   -2.9565   -1.4656 H   0  0  0  0  0  0  0  0  0  0  0  0
  -11.1553   -4.3991   -1.1784 H   0  0  0  0  0  0  0  0  0  0  0  0
  -12.7370   -2.2984    1.5304 H   0  0  0  0  0  0  0  0  0  0  0  0
   -9.7687   -0.2410    0.2261 H   0  0  0  0  0  0  0  0  0  0  0  0
  -11.3750   -0.6647   -1.5869 H   0  0  0  0  0  0  0  0  0  0  0  0
  -10.6522    0.9671   -1.7873 H   0  0  0  0  0  0  0  0  0  0  0  0
  -12.3337    0.7901   -1.1381 H   0  0  0  0  0  0  0  0  0  0  0  0
   -9.4982    1.8246    1.1359 H   0  0  0  0  0  0  0  0  0  0  0  0
  -10.0976    3.7778   -0.7815 H   0  0  0  0  0  0  0  0  0  0  0  0
  -11.4615    5.8157   -1.0245 H   0  0  0  0  0  0  0  0  0  0  0  0
  -12.6138    5.2330    0.2406 H   0  0  0  0  0  0  0  0  0  0  0  0
  -12.4607    4.3542   -1.3340 H   0  0  0  0  0  0  0  0  0  0  0  0
  -10.5790    4.9909    1.9739 H   0  0  0  0  0  0  0  0  0  0  0  0
   -6.8455    5.8999    0.6818 H   0  0  0  0  0  0  0  0  0  0  0  0
   -7.9659    3.7940    2.6405 H   0  0  0  0  0  0  0  0  0  0  0  0
   -7.5114    5.4980    3.0505 H   0  0  0  0  0  0  0  0  0  0  0  0
   -6.2499    4.3387    2.4913 H   0  0  0  0  0  0  0  0  0  0  0  0
   -7.9377    3.1006    0.1266 H   0  0  0  0  0  0  0  0  0  0  0  0
    0.2800   -5.6324    1.2045 H   0  0  0  0  0  0  0  0  0  0  0  0
    1.4107   -3.6645   -0.8478 H   0  0  0  0  0  0  0  0  0  0  0  0
    2.0882   -5.7773   -2.0957 H   0  0  0  0  0  0  0  0  0  0  0  0
    0.3337   -5.4274   -2.0676 H   0  0  0  0  0  0  0  0  0  0  0  0
    1.0081   -6.7076   -0.9838 H   0  0  0  0  0  0  0  0  0  0  0  0
    2.3010   -6.6797    1.2830 H   0  0  0  0  0  0  0  0  0  0  0  0
    4.8553   -6.6993    0.0829 H   0  0  0  0  0  0  0  0  0  0  0  0
    4.0148   -7.8964    2.7837 H   0  0  0  0  0  0  0  0  0  0  0  0
    5.5182   -8.3144    1.8721 H   0  0  0  0  0  0  0  0  0  0  0  0
    3.9068   -8.6699    1.1540 H   0  0  0  0  0  0  0  0  0  0  0  0
    6.8355   -4.1276    1.9129 H   0  0  0  0  0  0  0  0  0  0  0  0
    6.2903   -5.2767   -0.7352 H   0  0  0  0  0  0  0  0  0  0  0  0
    8.3963   -6.7296   -0.8275 H   0  0  0  0  0  0  0  0  0  0  0  0
    8.4669   -6.6274    0.9884 H   0  0  0  0  0  0  0  0  0  0  0  0
    7.0714   -7.4016    0.1678 H   0  0  0  0  0  0  0  0  0  0  0  0
    9.7219   -4.0028   -1.5661 H   0  0  0  0  0  0  0  0  0  0  0  0
   10.5384   -5.5799    0.5166 H   0  0  0  0  0  0  0  0  0  0  0  0
   10.7795   -4.0541    2.5503 H   0  0  0  0  0  0  0  0  0  0  0  0
    9.5675   -2.9475    1.7999 H   0  0  0  0  0  0  0  0  0  0  0  0
    9.1258   -4.6444    2.2181 H   0  0  0  0  0  0  0  0  0  0  0  0
   12.9030   -2.0932   -0.0415 H   0  0  0  0  0  0  0  0  0  0  0  0
    9.8669   -1.8627   -0.1854 H   0  0  0  0  0  0  0  0  0  0  0  0
   10.2140   -0.2962   -2.0781 H   0  0  0  0  0  0  0  0  0  0  0  0
   11.9878   -0.6828   -2.0645 H   0  0  0  0  0  0  0  0  0  0  0  0
   10.7865   -1.9622   -2.4536 H   0  0  0  0  0  0  0  0  0  0  0  0
   12.8220    0.6328    1.1918 H   0  0  0  0  0  0  0  0  0  0  0  0
   11.6943    1.6127   -1.4067 H   0  0  0  0  0  0  0  0  0  0  0  0
   13.2532    3.4828   -1.1290 H   0  0  0  0  0  0  0  0  0  0  0  0
   14.1026    1.9229   -0.8331 H   0  0  0  0  0  0  0  0  0  0  0  0
   13.6347    2.9701    0.5631 H   0  0  0  0  0  0  0  0  0  0  0  0
   10.4011    3.7494   -1.6459 H   0  0  0  0  0  0  0  0  0  0  0  0
    8.7307    4.3028    0.7449 H   0  0  0  0  0  0  0  0  0  0  0  0
    6.7594    2.9201   -0.0022 H   0  0  0  0  0  0  0  0  0  0  0  0
    8.1785    1.9268    0.4957 H   0  0  0  0  0  0  0  0  0  0  0  0
    7.8116    2.1567   -1.2604 H   0  0  0  0  0  0  0  0  0  0  0  0
    7.1315    6.7685   -1.5783 H   0  0  0  0  0  0  0  0  0  0  0  0
    6.6208    7.5220    0.5082 H   0  0  0  0  0  0  0  0  0  0  0  0
    8.4518    7.5949    2.1448 H   0  0  0  0  0  0  0  0  0  0  0  0
    9.3890    6.3797    1.2040 H   0  0  0  0  0  0  0  0  0  0  0  0
    9.0093    7.9793    0.4809 H   0  0  0  0  0  0  0  0  0  0  0  0
    5.0138    4.2404    1.6938 H   0  0  0  0  0  0  0  0  0  0  0  0
    5.0173    5.5526   -0.9234 H   0  0  0  0  0  0  0  0  0  0  0  0
    4.5450    7.8321   -1.4632 H   0  0  0  0  0  0  0  0  0  0  0  0
    3.7406    8.9254   -0.2900 H   0  0  0  0  0  0  0  0  0  0  0  0
    2.6939    4.4275    0.7505 H   0  0  0  0  0  0  0  0  0  0  0  0
    3.7299    3.5232   -0.4248 H   0  0  0  0  0  0  0  0  0  0  0  0
    0.6997    3.5181   -2.6740 H   0  0  0  0  0  0  0  0  0  0  0  0
    2.1532    2.6703   -2.0657 H   0  0  0  0  0  0  0  0  0  0  0  0
  1  2  1  0
  2  3  2  0
  2  4  1  0
  4  5  1  0
  5  6  1  0
  6  7  1  0
  7  8  1  0
  8  9  1  0
  9 10  1  0
 10 11  2  0
 11 12  1  0
 12 13  2  0
 13 14  1  0
 13 15  1  0
 15 16  1  0
 16 17  1  0
 17 18  1  0
 18 19  1  0
 19 20  1  0
 20 21  2  0
 20 22  1  0
 22 23  1  0
 22 24  1  0
 24 25  1  0
 25 26  2  0
 25 27  1  0
 27 28  1  0
 27 29  1  0
 29 30  1  0
 30 31  2  0
 30 32  1  0
 32 33  1  0
 32 34  1  0
 34 35  1  0
 35 36  2  0
 35 37  1  0
 37 38  1  0
 37 39  1  0
 39 40  1  0
 40 41  2  0
 40 42  1  0
 42 43  1  0
 42 44  1  0
 44 45  1  0
 45 46  2  0
 45 47  1  0
 47 48  1  0
 47 49  1  0
 49 50  1  0
 50 51  2  0
 50 52  1  0
 52 53  1  0
 52 54  1  0
 54 55  1  0
 55 56  2  0
 18 57  1  0
 57 58  2  0
 57 59  1  0
 59 60  1  0
 60 61  1  0
 60 62  1  0
 62 63  2  0
 62 64  1  0
 64 65  1  0
 65 66  1  0
 65 67  1  0
 67 68  2  0
 67 69  1  0
 69 70  1  0
 70 71  1  0
 70 72  1  0
 72 73  2  0
 72 74  1  0
 74 75  1  0
 75 76  1  0
 75 77  1  0
 77 78  2  0
 77 79  1  0
 79 80  1  0
 80 81  1  0
 80 82  1  0
 82 83  2  0
 82 84  1  0
 84 85  1  0
 85 86  1  0
 85 87  1  0
 87 88  2  0
 87 89  1  0
 89 90  1  0
 90 91  1  0
 90 92  1  0
 92 93  2  0
 92 94  1  0
 94 95  1  0
 95 96  1  0
 95 97  1  0
 97 98  2  0
 97 99  1  0
 99100  1  0
100101  1  0
101102  1  0
101103  2  0
100104  1  0
104105  1  0
105106  1  0
 55  5  1  0
 14  9  2  0
106 11  1  0
  1107  1  0
  1108  1  0
  1109  1  0
  4110  1  0
  5111  1  1
  6112  1  0
  6113  1  0
  8114  1  0
  8115  1  0
 10116  1  0
 12117  1  0
 14118  1  0
 15119  1  0
 15120  1  0
 17121  1  0
 17122  1  0
 18123  1  6
 19124  1  0
 22125  1  6
 23126  1  0
 23127  1  0
 23128  1  0
 24129  1  0
 27130  1  6
 28131  1  0
 28132  1  0
 28133  1  0
 29134  1  0
 32135  1  1
 33136  1  0
 33137  1  0
 33138  1  0
 34139  1  0
 37140  1  6
 38141  1  0
 38142  1  0
 38143  1  0
 39144  1  0
 42145  1  6
 43146  1  0
 43147  1  0
 43148  1  0
 44149  1  0
 47150  1  6
 48151  1  0
 48152  1  0
 48153  1  0
 49154  1  0
 52155  1  6
 53156  1  0
 53157  1  0
 53158  1  0
 54159  1  0
 59160  1  0
 60161  1  6
 61162  1  0
 61163  1  0
 61164  1  0
 64165  1  0
 65166  1  6
 66167  1  0
 66168  1  0
 66169  1  0
 69170  1  0
 70171  1  6
 71172  1  0
 71173  1  0
 71174  1  0
 74175  1  0
 75176  1  1
 76177  1  0
 76178  1  0
 76179  1  0
 79180  1  0
 80181  1  6
 81182  1  0
 81183  1  0
 81184  1  0
 84185  1  0
 85186  1  6
 86187  1  0
 86188  1  0
 86189  1  0
 89190  1  0
 90191  1  1
 91192  1  0
 91193  1  0
 91194  1  0
 94195  1  0
 95196  1  6
 96197  1  0
 96198  1  0
 96199  1  0
 99200  1  0
100201  1  6
102202  1  0
102203  1  0
104204  1  0
104205  1  0
106206  1  0
106207  1  0
M  END
