
     RDKit          3D

207209  0  0  0  0  0  0  0  0999 V2000
   -6.0364    8.3846    1.1196 C   0  0  0  0  0  0  0  0  0  0  0  0
   -5.2283    7.9938   -0.0807 C   0  0  0  0  0  0  0  0  0  0  0  0
   -4.5325    8.8708   -0.6559 O   0  0  0  0  0  0  0  0  0  0  0  0
   -5.2300    6.6539   -0.6029 N   0  0  0  0  0  0  0  0  0  0  0  0
   -5.9876    5.5372   -0.0267 C   0  0  2  0  0  0  0  0  0  0  0  0
   -5.0793    4.5868    0.8012 C   0  0  0  0  0  0  0  0  0  0  0  0
   -3.6061    5.4146    1.5273 S   0  0  0  0  0  0  0  0  0  0  0  0
   -2.4544    5.0705    0.1362 C   0  0  0  0  0  0  0  0  0  0  0  0
   -1.4090    4.0554    0.5210 C   0  0  0  0  0  0  0  0  0  0  0  0
   -0.0533    4.2960    0.2343 C   0  0  0  0  0  0  0  0  0  0  0  0
    0.9172    3.3227    0.5210 C   0  0  0  0  0  0  0  0  0  0  0  0
    0.5408    2.1346    1.1654 C   0  0  0  0  0  0  0  0  0  0  0  0
   -0.8086    1.8821    1.4555 C   0  0  0  0  0  0  0  0  0  0  0  0
   -1.7814    2.8284    1.0992 C   0  0  0  0  0  0  0  0  0  0  0  0
   -1.2246    0.5850    2.1003 C   0  0  0  0  0  0  0  0  0  0  0  0
   -1.8234   -0.5961    0.8381 S   0  0  0  0  0  0  0  0  0  0  0  0
   -0.1992   -1.3212    0.3901 C   0  0  0  0  0  0  0  0  0  0  0  0
   -0.2004   -2.8365    0.6472 C   0  0  2  0  0  0  0  0  0  0  0  0
   -0.4024   -3.0854    2.0821 N   0  0  0  0  0  0  0  0  0  0  0  0
   -1.2548   -4.0970    2.6547 C   0  0  0  0  0  0  0  0  0  0  0  0
   -1.0732   -4.4072    3.8607 O   0  0  0  0  0  0  0  0  0  0  0  0
   -2.3341   -4.8133    1.8534 C   0  0  1  0  0  0  0  0  0  0  0  0
   -1.7083   -5.9706    1.0618 C   0  0  0  0  0  0  0  0  0  0  0  0
   -3.3976   -5.3331    2.7325 N   0  0  0  0  0  0  0  0  0  0  0  0
   -4.5637   -6.0375    2.2707 C   0  0  0  0  0  0  0  0  0  0  0  0
   -5.1174   -6.8617    3.0463 O   0  0  0  0  0  0  0  0  0  0  0  0
   -5.2050   -5.7477    0.9316 C   0  0  1  0  0  0  0  0  0  0  0  0
   -5.5545   -7.0426    0.1829 C   0  0  0  0  0  0  0  0  0  0  0  0
   -6.3913   -4.9107    1.1127 N   0  0  0  0  0  0  0  0  0  0  0  0
   -7.5501   -5.3405    1.8416 C   0  0  0  0  0  0  0  0  0  0  0  0
   -7.5696   -5.2101    3.0953 O   0  0  0  0  0  0  0  0  0  0  0  0
   -8.7239   -5.9624    1.1203 C   0  0  1  0  0  0  0  0  0  0  0  0
  -10.0352   -5.8525    1.9094 C   0  0  0  0  0  0  0  0  0  0  0  0
   -8.8757   -5.4236   -0.2380 N   0  0  0  0  0  0  0  0  0  0  0  0
   -8.7978   -4.0286   -0.5728 C   0  0  0  0  0  0  0  0  0  0  0  0
   -7.9045   -3.6484   -1.3786 O   0  0  0  0  0  0  0  0  0  0  0  0
   -9.7659   -3.0098   -0.0184 C   0  0  1  0  0  0  0  0  0  0  0  0
   -9.0927   -2.2263    1.1187 C   0  0  0  0  0  0  0  0  0  0  0  0
  -10.2025   -2.1200   -1.1069 N   0  0  0  0  0  0  0  0  0  0  0  0
  -10.6645   -0.7741   -0.9118 C   0  0  0  0  0  0  0  0  0  0  0  0
  -11.3722   -0.4923    0.0918 O   0  0  0  0  0  0  0  0  0  0  0  0
  -10.3020    0.3348   -1.8748 C   0  0  1  0  0  0  0  0  0  0  0  0
   -9.4296   -0.1347   -3.0449 C   0  0  0  0  0  0  0  0  0  0  0  0
  -11.5272    0.9468   -2.3908 N   0  0  0  0  0  0  0  0  0  0  0  0
  -11.8603    2.3314   -2.2173 C   0  0  0  0  0  0  0  0  0  0  0  0
  -13.0624    2.6369   -1.9880 O   0  0  0  0  0  0  0  0  0  0  0  0
  -10.8448    3.4254   -2.4702 C   0  0  1  0  0  0  0  0  0  0  0  0
  -10.7053    3.6407   -3.9793 C   0  0  0  0  0  0  0  0  0  0  0  0
  -11.2753    4.6817   -1.8395 N   0  0  0  0  0  0  0  0  0  0  0  0
  -10.4149    5.6520   -1.2110 C   0  0  0  0  0  0  0  0  0  0  0  0
  -10.7851    6.8573   -1.2053 O   0  0  0  0  0  0  0  0  0  0  0  0
   -9.1128    5.3129   -0.5054 C   0  0  1  0  0  0  0  0  0  0  0  0
   -9.3113    4.2390    0.5688 C   0  0  0  0  0  0  0  0  0  0  0  0
   -8.0670    4.9342   -1.4641 N   0  0  0  0  0  0  0  0  0  0  0  0
   -6.6682    4.7907   -1.1574 C   0  0  0  0  0  0  0  0  0  0  0  0
   -5.9573    4.0989   -1.9352 O   0  0  0  0  0  0  0  0  0  0  0  0
    1.0922   -3.4877    0.1805 C   0  0  0  0  0  0  0  0  0  0  0  0
    1.7656   -2.9628   -0.7480 O   0  0  0  0  0  0  0  0  0  0  0  0
    1.5004   -4.7590    0.7185 N   0  0  0  0  0  0  0  0  0  0  0  0
    2.4070   -5.6725    0.0085 C   0  0  2  0  0  0  0  0  0  0  0  0
    1.7253   -6.2101   -1.2569 C   0  0  0  0  0  0  0  0  0  0  0  0
    2.7863   -6.8282    0.9078 C   0  0  0  0  0  0  0  0  0  0  0  0
    1.8851   -7.4788    1.5007 O   0  0  0  0  0  0  0  0  0  0  0  0
    4.1558   -7.1965    1.1077 N   0  0  0  0  0  0  0  0  0  0  0  0
    5.0225   -7.5417   -0.0249 C   0  0  2  0  0  0  0  0  0  0  0  0
    4.7456   -8.9864   -0.4519 C   0  0  0  0  0  0  0  0  0  0  0  0
    6.4799   -7.3974    0.3707 C   0  0  0  0  0  0  0  0  0  0  0  0
    6.8719   -7.9827    1.4182 O   0  0  0  0  0  0  0  0  0  0  0  0
    7.4635   -6.7338   -0.4437 N   0  0  0  0  0  0  0  0  0  0  0  0
    7.2137   -5.6459   -1.4003 C   0  0  2  0  0  0  0  0  0  0  0  0
    7.8689   -5.9726   -2.7468 C   0  0  0  0  0  0  0  0  0  0  0  0
    7.7071   -4.3251   -0.8621 C   0  0  0  0  0  0  0  0  0  0  0  0
    7.1358   -3.2660   -1.2373 O   0  0  0  0  0  0  0  0  0  0  0  0
    8.7574   -4.2416    0.1088 N   0  0  0  0  0  0  0  0  0  0  0  0
   10.1428   -4.5926   -0.2160 C   0  0  2  0  0  0  0  0  0  0  0  0
   10.9505   -4.8067    1.0666 C   0  0  0  0  0  0  0  0  0  0  0  0
   10.7652   -3.5286   -1.0811 C   0  0  0  0  0  0  0  0  0  0  0  0
   11.4873   -3.8664   -2.0586 O   0  0  0  0  0  0  0  0  0  0  0  0
   10.4787   -2.1431   -0.8733 N   0  0  0  0  0  0  0  0  0  0  0  0
   11.1434   -1.3549    0.1663 C   0  0  2  0  0  0  0  0  0  0  0  0
   10.1268   -0.8965    1.2151 C   0  0  0  0  0  0  0  0  0  0  0  0
   11.8877   -0.1965   -0.4618 C   0  0  0  0  0  0  0  0  0  0  0  0
   13.1291   -0.0917   -0.2686 O   0  0  0  0  0  0  0  0  0  0  0  0
   11.2469    0.7218   -1.3574 N   0  0  0  0  0  0  0  0  0  0  0  0
   10.2284    1.6816   -0.9269 C   0  0  2  0  0  0  0  0  0  0  0  0
    8.9311    1.4217   -1.7011 C   0  0  0  0  0  0  0  0  0  0  0  0
   10.7341    3.0920   -1.1156 C   0  0  0  0  0  0  0  0  0  0  0  0
   11.9276    3.3708   -0.8226 O   0  0  0  0  0  0  0  0  0  0  0  0
    9.8697    4.1338   -1.5885 N   0  0  0  0  0  0  0  0  0  0  0  0
    9.0548    4.9859   -0.7057 C   0  0  2  0  0  0  0  0  0  0  0  0
    8.8772    4.3769    0.6987 C   0  0  0  0  0  0  0  0  0  0  0  0
    7.6996    5.2302   -1.3261 C   0  0  0  0  0  0  0  0  0  0  0  0
    7.3684    4.5996   -2.3695 O   0  0  0  0  0  0  0  0  0  0  0  0
    6.7308    6.0895   -0.7096 N   0  0  0  0  0  0  0  0  0  0  0  0
    6.9695    7.5190   -0.4614 C   0  0  2  0  0  0  0  0  0  0  0  0
    7.6793    7.7836    0.8742 C   0  0  0  0  0  0  0  0  0  0  0  0
    5.6723    8.3084   -0.5483 C   0  0  0  0  0  0  0  0  0  0  0  0
    5.5711    9.1722   -1.4613 O   0  0  0  0  0  0  0  0  0  0  0  0
    4.5665    8.1513    0.3671 N   0  0  0  0  0  0  0  0  0  0  0  0
    4.3160    6.9947    1.2353 C   0  0  1  0  0  0  0  0  0  0  0  0
    3.8871    7.4678    2.6032 C   0  0  0  0  0  0  0  0  0  0  0  0
    2.6839    8.2141    2.7814 N   0  0  0  0  0  0  0  0  0  0  0  0
    4.6039    7.2038    3.6039 O   0  0  0  0  0  0  0  0  0  0  0  0
    3.2547    6.0785    0.6027 C   0  0  0  0  0  0  0  0  0  0  0  0
    3.2587    4.4371    1.4162 S   0  0  0  0  0  0  0  0  0  0  0  0
    2.3455    3.5391    0.1130 C   0  0  0  0  0  0  0  0  0  0  0  0
   -5.8517    9.4470    1.3856 H   0  0  0  0  0  0  0  0  0  0  0  0
   -7.1168    8.2605    0.9036 H   0  0  0  0  0  0  0  0  0  0  0  0
   -5.7564    7.7525    1.9883 H   0  0  0  0  0  0  0  0  0  0  0  0
   -4.5989    6.4550   -1.4127 H   0  0  0  0  0  0  0  0  0  0  0  0
   -6.7501    5.9263    0.6702 H   0  0  0  0  0  0  0  0  0  0  0  0
   -5.6760    4.1808    1.6440 H   0  0  0  0  0  0  0  0  0  0  0  0
   -4.7599    3.6987    0.2163 H   0  0  0  0  0  0  0  0  0  0  0  0
   -2.9940    4.7112   -0.7685 H   0  0  0  0  0  0  0  0  0  0  0  0
   -1.9758    6.0344   -0.1483 H   0  0  0  0  0  0  0  0  0  0  0  0
    0.2439    5.2225   -0.2461 H   0  0  0  0  0  0  0  0  0  0  0  0
    1.2946    1.4007    1.4229 H   0  0  0  0  0  0  0  0  0  0  0  0
   -2.8290    2.6145    1.2865 H   0  0  0  0  0  0  0  0  0  0  0  0
   -0.3996    0.1505    2.7011 H   0  0  0  0  0  0  0  0  0  0  0  0
   -2.0589    0.7755    2.8067 H   0  0  0  0  0  0  0  0  0  0  0  0
   -0.0411   -1.1190   -0.6909 H   0  0  0  0  0  0  0  0  0  0  0  0
    0.6392   -0.8559    0.9444 H   0  0  0  0  0  0  0  0  0  0  0  0
   -1.0207   -3.2781    0.0480 H   0  0  0  0  0  0  0  0  0  0  0  0
    0.2564   -2.6076    2.7382 H   0  0  0  0  0  0  0  0  0  0  0  0
   -2.7865   -4.0765    1.1593 H   0  0  0  0  0  0  0  0  0  0  0  0
   -1.1623   -6.6540    1.7442 H   0  0  0  0  0  0  0  0  0  0  0  0
   -1.0132   -5.5894    0.2904 H   0  0  0  0  0  0  0  0  0  0  0  0
   -2.4843   -6.5537    0.5304 H   0  0  0  0  0  0  0  0  0  0  0  0
   -3.2624   -5.3279    3.7700 H   0  0  0  0  0  0  0  0  0  0  0  0
   -4.4950   -5.1969    0.2855 H   0  0  0  0  0  0  0  0  0  0  0  0
   -6.0641   -6.7995   -0.7755 H   0  0  0  0  0  0  0  0  0  0  0  0
   -4.6281   -7.6105   -0.0515 H   0  0  0  0  0  0  0  0  0  0  0  0
   -6.2213   -7.6950    0.7880 H   0  0  0  0  0  0  0  0  0  0  0  0
   -6.2958   -3.8878    0.9247 H   0  0  0  0  0  0  0  0  0  0  0  0
   -8.5082   -7.0514    1.0319 H   0  0  0  0  0  0  0  0  0  0  0  0
  -10.2347   -4.8082    2.2170 H   0  0  0  0  0  0  0  0  0  0  0  0
  -10.8811   -6.2257    1.2954 H   0  0  0  0  0  0  0  0  0  0  0  0
   -9.9764   -6.4771    2.8252 H   0  0  0  0  0  0  0  0  0  0  0  0
   -8.7058   -6.0937   -1.0235 H   0  0  0  0  0  0  0  0  0  0  0  0
  -10.6613   -3.5313    0.3736 H   0  0  0  0  0  0  0  0  0  0  0  0
   -8.3078   -1.5496    0.7134 H   0  0  0  0  0  0  0  0  0  0  0  0
   -9.8374   -1.6248    1.6762 H   0  0  0  0  0  0  0  0  0  0  0  0
   -8.6288   -2.9084    1.8558 H   0  0  0  0  0  0  0  0  0  0  0  0
  -10.2559   -2.5127   -2.0747 H   0  0  0  0  0  0  0  0  0  0  0  0
   -9.7118    1.0717   -1.2899 H   0  0  0  0  0  0  0  0  0  0  0  0
   -9.1007    0.7384   -3.6454 H   0  0  0  0  0  0  0  0  0  0  0  0
   -8.5234   -0.6577   -2.6720 H   0  0  0  0  0  0  0  0  0  0  0  0
  -10.0005   -0.8190   -3.7086 H   0  0  0  0  0  0  0  0  0  0  0  0
  -12.2664    0.3157   -2.7794 H   0  0  0  0  0  0  0  0  0  0  0  0
   -9.8619    3.1181   -2.0838 H   0  0  0  0  0  0  0  0  0  0  0  0
  -11.6917    3.8813   -4.4307 H   0  0  0  0  0  0  0  0  0  0  0  0
  -10.0082    4.4813   -4.1849 H   0  0  0  0  0  0  0  0  0  0  0  0
  -10.3063    2.7256   -4.4650 H   0  0  0  0  0  0  0  0  0  0  0  0
  -12.2303    5.0256   -2.0952 H   0  0  0  0  0  0  0  0  0  0  0  0
   -8.7961    6.2431    0.0128 H   0  0  0  0  0  0  0  0  0  0  0  0
  -10.1666    4.5092    1.2287 H   0  0  0  0  0  0  0  0  0  0  0  0
   -9.5074    3.2423    0.1289 H   0  0  0  0  0  0  0  0  0  0  0  0
   -8.4021    4.1629    1.2028 H   0  0  0  0  0  0  0  0  0  0  0  0
   -8.3351    4.7574   -2.4576 H   0  0  0  0  0  0  0  0  0  0  0  0
    1.0613   -5.0845    1.6041 H   0  0  0  0  0  0  0  0  0  0  0  0
    3.3276   -5.1180   -0.2804 H   0  0  0  0  0  0  0  0  0  0  0  0
    2.4082   -6.9024   -1.7970 H   0  0  0  0  0  0  0  0  0  0  0  0
    0.7963   -6.7604   -1.0025 H   0  0  0  0  0  0  0  0  0  0  0  0
    1.4596   -5.3785   -1.9378 H   0  0  0  0  0  0  0  0  0  0  0  0
    4.3828   -7.6307    2.0334 H   0  0  0  0  0  0  0  0  0  0  0  0
    4.7641   -6.9076   -0.8874 H   0  0  0  0  0  0  0  0  0  0  0  0
    3.6836   -9.0894   -0.7654 H   0  0  0  0  0  0  0  0  0  0  0  0
    4.9394   -9.6903    0.3864 H   0  0  0  0  0  0  0  0  0  0  0  0
    5.3909   -9.2610   -1.3132 H   0  0  0  0  0  0  0  0  0  0  0  0
    8.4578   -6.9898   -0.2560 H   0  0  0  0  0  0  0  0  0  0  0  0
    6.1339   -5.5244   -1.5955 H   0  0  0  0  0  0  0  0  0  0  0  0
    8.9720   -6.0114   -2.6641 H   0  0  0  0  0  0  0  0  0  0  0  0
    7.5042   -6.9576   -3.1051 H   0  0  0  0  0  0  0  0  0  0  0  0
    7.5970   -5.2030   -3.5000 H   0  0  0  0  0  0  0  0  0  0  0  0
    8.6083   -3.5484    0.8768 H   0  0  0  0  0  0  0  0  0  0  0  0
   10.1677   -5.5536   -0.7696 H   0  0  0  0  0  0  0  0  0  0  0  0
   10.5276   -5.6639    1.6339 H   0  0  0  0  0  0  0  0  0  0  0  0
   12.0089   -5.0367    0.8208 H   0  0  0  0  0  0  0  0  0  0  0  0
   10.9164   -3.9104    1.7173 H   0  0  0  0  0  0  0  0  0  0  0  0
    9.8669   -1.6643   -1.5684 H   0  0  0  0  0  0  0  0  0  0  0  0
   11.8930   -1.9891    0.6915 H   0  0  0  0  0  0  0  0  0  0  0  0
   10.5719   -0.1265    1.8810 H   0  0  0  0  0  0  0  0  0  0  0  0
    9.8260   -1.7556    1.8484 H   0  0  0  0  0  0  0  0  0  0  0  0
    9.2118   -0.4953    0.7345 H   0  0  0  0  0  0  0  0  0  0  0  0
   11.6872    0.8645   -2.2959 H   0  0  0  0  0  0  0  0  0  0  0  0
   10.0273    1.5635    0.1571 H   0  0  0  0  0  0  0  0  0  0  0  0
    8.1103    2.0693   -1.3270 H   0  0  0  0  0  0  0  0  0  0  0  0
    8.6093    0.3690   -1.5640 H   0  0  0  0  0  0  0  0  0  0  0  0
    9.0799    1.6121   -2.7874 H   0  0  0  0  0  0  0  0  0  0  0  0
   10.0733    4.5045   -2.5441 H   0  0  0  0  0  0  0  0  0  0  0  0
    9.5779    5.9605   -0.6060 H   0  0  0  0  0  0  0  0  0  0  0  0
    9.8618    4.2537    1.1956 H   0  0  0  0  0  0  0  0  0  0  0  0
    8.3683    3.3898    0.6399 H   0  0  0  0  0  0  0  0  0  0  0  0
    8.2588    5.0382    1.3392 H   0  0  0  0  0  0  0  0  0  0  0  0
    5.7423    5.7785   -0.8435 H   0  0  0  0  0  0  0  0  0  0  0  0
    7.6426    7.8987   -1.2626 H   0  0  0  0  0  0  0  0  0  0  0  0
    7.1848    7.2802    1.7249 H   0  0  0  0  0  0  0  0  0  0  0  0
    8.7311    7.4405    0.8362 H   0  0  0  0  0  0  0  0  0  0  0  0
    7.7063    8.8749    1.0799 H   0  0  0  0  0  0  0  0  0  0  0  0
    3.7857    8.8393    0.2620 H   0  0  0  0  0  0  0  0  0  0  0  0
    5.2374    6.3995    1.3579 H   0  0  0  0  0  0  0  0  0  0  0  0
    2.3942    8.5263    3.7345 H   0  0  0  0  0  0  0  0  0  0  0  0
    2.0842    8.4749    1.9683 H   0  0  0  0  0  0  0  0  0  0  0  0
    3.4977    5.9569   -0.4700 H   0  0  0  0  0  0  0  0  0  0  0  0
    2.2412    6.5218    0.6647 H   0  0  0  0  0  0  0  0  0  0  0  0
    2.3901    4.0627   -0.8638 H   0  0  0  0  0  0  0  0  0  0  0  0
    2.8487    2.5595   -0.0428 H   0  0  0  0  0  0  0  0  0  0  0  0
  1  2  1  0
  2  3  2  0
  2  4  1  0
  4  5  1  0
  5  6  1  0
  6  7  1  0
  7  8  1  0
  8  9  1  0
  9 10  1  0
 10 11  2  0
 11 12  1  0
 12 13  2  0
 13 14  1  0
 13 15  1  0
 15 16  1  0
 16 17  1  0
 17 18  1  0
 18 19  1  0
 19 20  1  0
 20 21  2  0
 20 22  1  0
 22 23  1  0
 22 24  1  0
 24 25  1  0
 25 26  2  0
 25 27  1  0
 27 28  1  0
 27 29  1  0
 29 30  1  0
 30 31  2  0
 30 32  1  0
 32 33  1  0
 32 34  1  0
 34 35  1  0
 35 36  2  0
 35 37  1  0
 37 38  1  0
 37 39  1  0
 39 40  1  0
 40 41  2  0
 40 42  1  0
 42 43  1  0
 42 44  1  0
 44 45  1  0
 45 46  2  0
 45 47  1  0
 47 48  1  0
 47 49  1  0
 49 50  1  0
 50 51  2  0
 50 52  1  0
 52 53  1  0
 52 54  1  0
 54 55  1  0
 55 56  2  0
 18 57  1  0
 57 58  2  0
 57 59  1  0
 59 60  1  0
 60 61  1  0
 60 62  1  0
 62 63  2  0
 62 64  1  0
 64 65  1  0
 65 66  1  0
 65 67  1  0
 67 68  2  0
 67 69  1  0
 69 70  1  0
 70 71  1  0
 70 72  1  0
 72 73  2  0
 72 74  1  0
 74 75  1  0
 75 76  1  0
 75 77  1  0
 77 78  2  0
 77 79  1  0
 79 80  1  0
 80 81  1  0
 80 82  1  0
 82 83  2  0
 82 84  1  0
 84 85  1  0
 85 86  1  0
 85 87  1  0
 87 88  2  0
 87 89  1  0
 89 90  1  0
 90 91  1  0
 90 92  1  0
 92 93  2  0
 92 94  1  0
 94 95  1  0
 95 96  1  0
 95 97  1  0
 97 98  2  0
 97 99  1  0
 99100  1  0
100101  1  0
101102  1  0
101103  2  0
100104  1  0
104105  1  0
105106  1  0
 55  5  1  0
 14  9  2  0
106 11  1  0
  1107  1  0
  1108  1  0
  1109  1  0
  4110  1  0
  5111  1  1
  6112  1  0
  6113  1  0
  8114  1  0
  8115  1  0
 10116  1  0
 12117  1  0
 14118  1  0
 15119  1  0
 15120  1  0
 17121  1  0
 17122  1  0
 18123  1  6
 19124  1  0
 22125  1  6
 23126  1  0
 23127  1  0
 23128  1  0
 24129  1  0
 27130  1  6
 28131  1  0
 28132  1  0
 28133  1  0
 29134  1  0
 32135  1  6
 33136  1  0
 33137  1  0
 33138  1  0
 34139  1  0
 37140  1  1
 38141  1  0
 38142  1  0
 38143  1  0
 39144  1  0
 42145  1  1
 43146  1  0
 43147  1  0
 43148  1  0
 44149  1  0
 47150  1  1
 48151  1  0
 48152  1  0
 48153  1  0
 49154  1  0
 52155  1  1
 53156  1  0
 53157  1  0
 53158  1  0
 54159  1  0
 59160  1  0
 60161  1  6
 61162  1  0
 61163  1  0
 61164  1  0
 64165  1  0
 65166  1  6
 66167  1  0
 66168  1  0
 66169  1  0
 69170  1  0
 70171  1  6
 71172  1  0
 71173  1  0
 71174  1  0
 74175  1  0
 75176  1  6
 76177  1  0
 76178  1  0
 76179  1  0
 79180  1  0
 80181  1  1
 81182  1  0
 81183  1  0
 81184  1  0
 84185  1  0
 85186  1  1
 86187  1  0
 86188  1  0
 86189  1  0
 89190  1  0
 90191  1  1
 91192  1  0
 91193  1  0
 91194  1  0
 94195  1  0
 95196  1  6
 96197  1  0
 96198  1  0
 96199  1  0
 99200  1  0
100201  1  1
102202  1  0
102203  1  0
104204  1  0
104205  1  0
106206  1  0
106207  1  0
M  END
