
     RDKit          3D

197199  0  0  0  0  0  0  0  0999 V2000
   -3.6501    8.4662    0.3042 C   0  0  0  0  0  0  0  0  0  0  0  0
   -3.8052    8.0005    1.7118 C   0  0  0  0  0  0  0  0  0  0  0  0
   -3.6144    8.8099    2.6594 O   0  0  0  0  0  0  0  0  0  0  0  0
   -4.1034    6.6253    2.0197 N   0  0  0  0  0  0  0  0  0  0  0  0
   -5.1137    5.8440    1.2889 C   0  0  1  0  0  0  0  0  0  0  0  0
   -4.5738    4.4327    0.9916 C   0  0  0  0  0  0  0  0  0  0  0  0
   -3.7616    4.3341   -0.6548 S   0  0  0  0  0  0  0  0  0  0  0  0
   -2.1258    4.9979   -0.1732 C   0  0  0  0  0  0  0  0  0  0  0  0
   -1.0441    4.0017   -0.4788 C   0  0  0  0  0  0  0  0  0  0  0  0
    0.0056    4.3418   -1.3570 C   0  0  0  0  0  0  0  0  0  0  0  0
    1.0602    3.4485   -1.5763 C   0  0  0  0  0  0  0  0  0  0  0  0
    1.0610    2.2142   -0.9188 C   0  0  0  0  0  0  0  0  0  0  0  0
   -0.0009    1.8201   -0.1120 C   0  0  0  0  0  0  0  0  0  0  0  0
   -1.0325    2.7287    0.1416 C   0  0  0  0  0  0  0  0  0  0  0  0
   -0.1089    0.3863    0.3688 C   0  0  0  0  0  0  0  0  0  0  0  0
    0.4848   -0.7701   -0.9462 S   0  0  0  0  0  0  0  0  0  0  0  0
    1.1704   -2.0807    0.1353 C   0  0  0  0  0  0  0  0  0  0  0  0
    0.4682   -3.4278   -0.1097 C   0  0  2  0  0  0  0  0  0  0  0  0
   -0.9782   -3.3305    0.1577 N   0  0  0  0  0  0  0  0  0  0  0  0
   -1.7813   -4.3658    0.7250 C   0  0  0  0  0  0  0  0  0  0  0  0
   -2.2243   -4.2068    1.9024 O   0  0  0  0  0  0  0  0  0  0  0  0
   -2.3587   -5.4775   -0.1256 C   0  0  1  0  0  0  0  0  0  0  0  0
   -1.4487   -5.9214   -1.2815 C   0  0  0  0  0  0  0  0  0  0  0  0
   -2.6531   -6.6345    0.7196 N   0  0  0  0  0  0  0  0  0  0  0  0
   -3.8665   -7.4087    0.6857 C   0  0  0  0  0  0  0  0  0  0  0  0
   -3.8086   -8.6275    1.0321 O   0  0  0  0  0  0  0  0  0  0  0  0
   -5.1895   -6.8349    0.2292 C   0  0  1  0  0  0  0  0  0  0  0  0
   -5.5253   -7.3827   -1.1598 C   0  0  0  0  0  0  0  0  0  0  0  0
   -6.2466   -7.1912    1.1890 N   0  0  0  0  0  0  0  0  0  0  0  0
   -7.2721   -6.2635    1.5464 C   0  0  0  0  0  0  0  0  0  0  0  0
   -7.3004   -5.8065    2.7209 O   0  0  0  0  0  0  0  0  0  0  0  0
   -8.3222   -5.8490    0.5449 C   0  0  1  0  0  0  0  0  0  0  0  0
   -9.7252   -6.0221    1.1534 C   0  0  0  0  0  0  0  0  0  0  0  0
   -8.0680   -4.4665    0.1165 N   0  0  0  0  0  0  0  0  0  0  0  0
   -9.0950   -3.5479   -0.2449 C   0  0  0  0  0  0  0  0  0  0  0  0
   -9.9029   -3.8409   -1.1743 O   0  0  0  0  0  0  0  0  0  0  0  0
   -9.2291   -2.2027    0.4402 C   0  0  1  0  0  0  0  0  0  0  0  0
   -8.3157   -2.0725    1.6563 C   0  0  0  0  0  0  0  0  0  0  0  0
   -8.9546   -1.1350   -0.5132 N   0  0  0  0  0  0  0  0  0  0  0  0
  -10.0100   -0.4373   -1.1779 C   0  0  0  0  0  0  0  0  0  0  0  0
  -10.4509   -0.8872   -2.2696 O   0  0  0  0  0  0  0  0  0  0  0  0
  -10.4847    0.9002   -0.6776 C   0  0  1  0  0  0  0  0  0  0  0  0
  -10.8591    0.8553    0.8101 C   0  0  0  0  0  0  0  0  0  0  0  0
   -9.4485    1.9100   -0.8948 N   0  0  0  0  0  0  0  0  0  0  0  0
   -9.6536    3.0666   -1.7120 C   0  0  0  0  0  0  0  0  0  0  0  0
   -8.8908    3.2456   -2.7016 O   0  0  0  0  0  0  0  0  0  0  0  0
  -10.6667    4.1327   -1.3533 C   0  0  1  0  0  0  0  0  0  0  0  0
  -12.0891    3.7407   -1.7894 C   0  0  0  0  0  0  0  0  0  0  0  0
  -10.6273    4.4417    0.0790 N   0  0  0  0  0  0  0  0  0  0  0  0
   -9.4292    4.6383    0.8587 C   0  0  0  0  0  0  0  0  0  0  0  0
   -9.3831    4.1067    2.0040 O   0  0  0  0  0  0  0  0  0  0  0  0
   -8.2138    5.4288    0.3923 C   0  0  1  0  0  0  0  0  0  0  0  0
   -8.5128    6.4610   -0.6973 C   0  0  0  0  0  0  0  0  0  0  0  0
   -7.6486    6.1314    1.5422 N   0  0  0  0  0  0  0  0  0  0  0  0
   -6.3812    5.7685    2.1184 C   0  0  0  0  0  0  0  0  0  0  0  0
   -6.3208    5.4103    3.3229 O   0  0  0  0  0  0  0  0  0  0  0  0
    1.1275   -4.4961    0.7387 C   0  0  0  0  0  0  0  0  0  0  0  0
    1.1440   -4.3934    1.9847 O   0  0  0  0  0  0  0  0  0  0  0  0
    1.7037   -5.6726    0.1457 N   0  0  0  0  0  0  0  0  0  0  0  0
    2.8352   -5.6393   -0.7932 C   0  0  2  0  0  0  0  0  0  0  0  0
    2.3643   -5.4616   -2.2438 C   0  0  0  0  0  0  0  0  0  0  0  0
    3.6405   -6.9209   -0.6711 C   0  0  0  0  0  0  0  0  0  0  0  0
    3.0322   -8.0295   -0.5874 O   0  0  0  0  0  0  0  0  0  0  0  0
    5.0812   -6.9351   -0.6578 N   0  0  0  0  0  0  0  0  0  0  0  0
    5.9044   -5.9111   -0.0067 C   0  0  2  0  0  0  0  0  0  0  0  0
    5.3295   -5.5489    1.3826 C   0  0  0  0  0  0  0  0  0  0  0  0
    6.1041   -4.7341   -0.9300 C   0  0  0  0  0  0  0  0  0  0  0  0
    6.0895   -4.9105   -2.1828 O   0  0  0  0  0  0  0  0  0  0  0  0
    6.3309   -3.4291   -0.3918 N   0  0  0  0  0  0  0  0  0  0  0  0
    7.5771   -2.6751   -0.5731 C   0  0  2  0  0  0  0  0  0  0  0  0
    7.6895   -2.0968   -1.9790 C   0  0  0  0  0  0  0  0  0  0  0  0
    8.7995   -3.4923   -0.2089 C   0  0  0  0  0  0  0  0  0  0  0  0
    8.8728   -4.7003   -0.5954 O   0  0  0  0  0  0  0  0  0  0  0  0
   10.0054   -2.8785    0.2821 N   0  0  0  0  0  0  0  0  0  0  0  0
   10.3167   -2.6355    1.6971 C   0  0  2  0  0  0  0  0  0  0  0  0
    9.1738   -1.9014    2.4535 C   0  0  0  0  0  0  0  0  0  0  0  0
   11.6305   -1.8554    1.8383 C   0  0  0  0  0  0  0  0  0  0  0  0
   12.0989   -1.6687    2.9925 O   0  0  0  0  0  0  0  0  0  0  0  0
   12.3653   -1.3526    0.7139 N   0  0  0  0  0  0  0  0  0  0  0  0
   11.7838   -0.4944   -0.3278 C   0  0  2  0  0  0  0  0  0  0  0  0
   12.3469   -0.8842   -1.6983 C   0  0  0  0  0  0  0  0  0  0  0  0
   12.1094    0.9400   -0.0083 C   0  0  0  0  0  0  0  0  0  0  0  0
   13.2739    1.3883   -0.1636 O   0  0  0  0  0  0  0  0  0  0  0  0
   11.1117    1.7950    0.5685 N   0  0  0  0  0  0  0  0  0  0  0  0
   10.1592    2.5842   -0.2373 C   0  0  2  0  0  0  0  0  0  0  0  0
   10.6511    2.8073   -1.6726 C   0  0  0  0  0  0  0  0  0  0  0  0
    9.9570    3.9228    0.4234 C   0  0  0  0  0  0  0  0  0  0  0  0
   10.9591    4.6625    0.6221 O   0  0  0  0  0  0  0  0  0  0  0  0
    8.6543    4.4413    0.7600 N   0  0  0  0  0  0  0  0  0  0  0  0
    7.3948    4.0765    0.1221 C   0  0  2  0  0  0  0  0  0  0  0  0
    7.0659    5.1413   -0.9358 C   0  0  0  0  0  0  0  0  0  0  0  0
    6.3299    3.8930    1.1752 C   0  0  0  0  0  0  0  0  0  0  0  0
    6.6944    3.5033    2.3288 O   0  0  0  0  0  0  0  0  0  0  0  0
    4.9251    3.8250    0.8736 N   0  0  0  0  0  0  0  0  0  0  0  0
    3.9880    4.9520    0.6416 C   0  0  1  0  0  0  0  0  0  0  0  0
    4.3720    6.2442    1.3546 C   0  0  0  0  0  0  0  0  0  0  0  0
    3.5535    7.4215    1.1917 N   0  0  0  0  0  0  0  0  0  0  0  0
    5.4283    6.3381    2.0202 O   0  0  0  0  0  0  0  0  0  0  0  0
    3.7147    5.1735   -0.8642 C   0  0  0  0  0  0  0  0  0  0  0  0
    3.7959    3.6277   -1.8561 S   0  0  0  0  0  0  0  0  0  0  0  0
    2.1235    3.7553   -2.5904 C   0  0  0  0  0  0  0  0  0  0  0  0
   -4.4932    9.1490    0.0336 H   0  0  0  0  0  0  0  0  0  0  0  0
   -2.6891    9.0290    0.2098 H   0  0  0  0  0  0  0  0  0  0  0  0
   -3.6249    7.6198   -0.4159 H   0  0  0  0  0  0  0  0  0  0  0  0
   -3.8744    6.3081    2.9861 H   0  0  0  0  0  0  0  0  0  0  0  0
   -5.3781    6.3347    0.3235 H   0  0  0  0  0  0  0  0  0  0  0  0
   -3.8831    4.0787    1.7937 H   0  0  0  0  0  0  0  0  0  0  0  0
   -5.4109    3.7007    0.9591 H   0  0  0  0  0  0  0  0  0  0  0  0
   -1.9475    5.9201   -0.7716 H   0  0  0  0  0  0  0  0  0  0  0  0
   -2.0724    5.2957    0.8986 H   0  0  0  0  0  0  0  0  0  0  0  0
   -0.0050    5.3004   -1.8716 H   0  0  0  0  0  0  0  0  0  0  0  0
    1.9304    1.5645   -1.0086 H   0  0  0  0  0  0  0  0  0  0  0  0
   -1.8593    2.4494    0.7783 H   0  0  0  0  0  0  0  0  0  0  0  0
    0.4738    0.2917    1.3162 H   0  0  0  0  0  0  0  0  0  0  0  0
   -1.1629    0.1218    0.5959 H   0  0  0  0  0  0  0  0  0  0  0  0
    1.1263   -1.8214    1.2075 H   0  0  0  0  0  0  0  0  0  0  0  0
    2.2429   -2.1921   -0.1346 H   0  0  0  0  0  0  0  0  0  0  0  0
    0.5942   -3.6875   -1.1880 H   0  0  0  0  0  0  0  0  0  0  0  0
   -1.4535   -2.4039    0.0790 H   0  0  0  0  0  0  0  0  0  0  0  0
   -3.2843   -5.0773   -0.5964 H   0  0  0  0  0  0  0  0  0  0  0  0
   -2.0202   -6.5816   -1.9547 H   0  0  0  0  0  0  0  0  0  0  0  0
   -1.1210   -5.0559   -1.8700 H   0  0  0  0  0  0  0  0  0  0  0  0
   -0.5780   -6.4578   -0.8593 H   0  0  0  0  0  0  0  0  0  0  0  0
   -1.8596   -7.0378    1.2714 H   0  0  0  0  0  0  0  0  0  0  0  0
   -5.1305   -5.7333    0.1739 H   0  0  0  0  0  0  0  0  0  0  0  0
   -6.3817   -6.8440   -1.5984 H   0  0  0  0  0  0  0  0  0  0  0  0
   -4.6581   -7.2609   -1.8441 H   0  0  0  0  0  0  0  0  0  0  0  0
   -5.7733   -8.4650   -1.0952 H   0  0  0  0  0  0  0  0  0  0  0  0
   -6.0641   -7.9523    1.8818 H   0  0  0  0  0  0  0  0  0  0  0  0
   -8.2570   -6.5045   -0.3413 H   0  0  0  0  0  0  0  0  0  0  0  0
  -10.4941   -5.9434    0.3632 H   0  0  0  0  0  0  0  0  0  0  0  0
   -9.9218   -5.2404    1.9219 H   0  0  0  0  0  0  0  0  0  0  0  0
   -9.8210   -7.0262    1.6227 H   0  0  0  0  0  0  0  0  0  0  0  0
   -7.0854   -4.1845   -0.1109 H   0  0  0  0  0  0  0  0  0  0  0  0
  -10.2819   -2.1188    0.8038 H   0  0  0  0  0  0  0  0  0  0  0  0
   -8.3996   -1.0554    2.1072 H   0  0  0  0  0  0  0  0  0  0  0  0
   -8.5976   -2.8203    2.4402 H   0  0  0  0  0  0  0  0  0  0  0  0
   -7.2462   -2.2364    1.3822 H   0  0  0  0  0  0  0  0  0  0  0  0
   -7.9916   -1.0603   -0.9158 H   0  0  0  0  0  0  0  0  0  0  0  0
  -11.4041    1.1515   -1.2449 H   0  0  0  0  0  0  0  0  0  0  0  0
  -11.6081    0.0482    0.9977 H   0  0  0  0  0  0  0  0  0  0  0  0
  -11.3007    1.8232    1.1127 H   0  0  0  0  0  0  0  0  0  0  0  0
   -9.9598    0.6691    1.4285 H   0  0  0  0  0  0  0  0  0  0  0  0
   -8.4668    1.6586   -0.6484 H   0  0  0  0  0  0  0  0  0  0  0  0
  -10.4292    5.0452   -1.9389 H   0  0  0  0  0  0  0  0  0  0  0  0
  -12.0816    3.2852   -2.8010 H   0  0  0  0  0  0  0  0  0  0  0  0
  -12.5571    3.0338   -1.0738 H   0  0  0  0  0  0  0  0  0  0  0  0
  -12.7245    4.6463   -1.8216 H   0  0  0  0  0  0  0  0  0  0  0  0
  -11.5049    4.3261    0.6277 H   0  0  0  0  0  0  0  0  0  0  0  0
   -7.4689    4.7069   -0.0154 H   0  0  0  0  0  0  0  0  0  0  0  0
   -8.4511    6.0007   -1.7041 H   0  0  0  0  0  0  0  0  0  0  0  0
   -7.7443    7.2692   -0.6838 H   0  0  0  0  0  0  0  0  0  0  0  0
   -9.5051    6.9332   -0.5498 H   0  0  0  0  0  0  0  0  0  0  0  0
   -8.2879    6.7274    2.1245 H   0  0  0  0  0  0  0  0  0  0  0  0
    1.4908   -6.5673    0.6387 H   0  0  0  0  0  0  0  0  0  0  0  0
    3.4835   -4.7730   -0.5404 H   0  0  0  0  0  0  0  0  0  0  0  0
    3.0417   -5.9664   -2.9472 H   0  0  0  0  0  0  0  0  0  0  0  0
    2.3585   -4.3821   -2.4797 H   0  0  0  0  0  0  0  0  0  0  0  0
    1.3575   -5.8847   -2.3804 H   0  0  0  0  0  0  0  0  0  0  0  0
    5.5552   -7.8370   -0.9004 H   0  0  0  0  0  0  0  0  0  0  0  0
    6.9077   -6.3565    0.1572 H   0  0  0  0  0  0  0  0  0  0  0  0
    6.1367   -5.4327    2.1306 H   0  0  0  0  0  0  0  0  0  0  0  0
    4.7737   -4.5986    1.3912 H   0  0  0  0  0  0  0  0  0  0  0  0
    4.6423   -6.3408    1.7599 H   0  0  0  0  0  0  0  0  0  0  0  0
    5.4628   -2.8609   -0.2224 H   0  0  0  0  0  0  0  0  0  0  0  0
    7.5026   -1.7781    0.0777 H   0  0  0  0  0  0  0  0  0  0  0  0
    6.7317   -1.6082   -2.2759 H   0  0  0  0  0  0  0  0  0  0  0  0
    8.4953   -1.3351   -1.9812 H   0  0  0  0  0  0  0  0  0  0  0  0
    7.9243   -2.8956   -2.7098 H   0  0  0  0  0  0  0  0  0  0  0  0
   10.8508   -3.1580   -0.2883 H   0  0  0  0  0  0  0  0  0  0  0  0
   10.4721   -3.6249    2.2020 H   0  0  0  0  0  0  0  0  0  0  0  0
    8.5969   -2.6379    3.0573 H   0  0  0  0  0  0  0  0  0  0  0  0
    8.5470   -1.2389    1.8162 H   0  0  0  0  0  0  0  0  0  0  0  0
    9.5992   -1.2468    3.2472 H   0  0  0  0  0  0  0  0  0  0  0  0
   13.3996   -1.3966    0.7924 H   0  0  0  0  0  0  0  0  0  0  0  0
   10.6736   -0.5887   -0.3710 H   0  0  0  0  0  0  0  0  0  0  0  0
   13.4595   -0.8102   -1.6969 H   0  0  0  0  0  0  0  0  0  0  0  0
   12.0418   -1.9214   -1.9562 H   0  0  0  0  0  0  0  0  0  0  0  0
   11.9664   -0.2088   -2.4890 H   0  0  0  0  0  0  0  0  0  0  0  0
   10.8267    1.5873    1.5512 H   0  0  0  0  0  0  0  0  0  0  0  0
    9.2208    1.9961   -0.2963 H   0  0  0  0  0  0  0  0  0  0  0  0
   11.6753    3.2498   -1.6785 H   0  0  0  0  0  0  0  0  0  0  0  0
   10.6623    1.8505   -2.2401 H   0  0  0  0  0  0  0  0  0  0  0  0
    9.9672    3.5094   -2.2128 H   0  0  0  0  0  0  0  0  0  0  0  0
    8.6407    5.2827    1.3918 H   0  0  0  0  0  0  0  0  0  0  0  0
    7.4571    3.1198   -0.4256 H   0  0  0  0  0  0  0  0  0  0  0  0
    6.3270    4.7448   -1.6543 H   0  0  0  0  0  0  0  0  0  0  0  0
    6.7023    6.0790   -0.4659 H   0  0  0  0  0  0  0  0  0  0  0  0
    7.9738    5.3696   -1.5343 H   0  0  0  0  0  0  0  0  0  0  0  0
    4.4620    2.9437    1.1981 H   0  0  0  0  0  0  0  0  0  0  0  0
    3.0087    4.6513    1.0919 H   0  0  0  0  0  0  0  0  0  0  0  0
    3.9098    8.3333    1.5609 H   0  0  0  0  0  0  0  0  0  0  0  0
    2.8850    7.4344    0.4006 H   0  0  0  0  0  0  0  0  0  0  0  0
    2.7192    5.6531   -0.9669 H   0  0  0  0  0  0  0  0  0  0  0  0
    4.4282    5.8995   -1.2928 H   0  0  0  0  0  0  0  0  0  0  0  0
    1.9846    4.7542   -3.0533 H   0  0  0  0  0  0  0  0  0  0  0  0
    2.0368    2.9902   -3.3921 H   0  0  0  0  0  0  0  0  0  0  0  0
  1  2  1  0
  2  3  2  0
  2  4  1  0
  4  5  1  0
  5  6  1  0
  6  7  1  0
  7  8  1  0
  8  9  1  0
  9 10  2  0
 10 11  1  0
 11 12  2  0
 12 13  1  0
 13 14  2  0
 13 15  1  0
 15 16  1  0
 16 17  1  0
 17 18  1  0
 18 19  1  0
 19 20  1  0
 20 21  2  0
 20 22  1  0
 22 23  1  0
 22 24  1  0
 24 25  1  0
 25 26  2  0
 25 27  1  0
 27 28  1  0
 27 29  1  0
 29 30  1  0
 30 31  2  0
 30 32  1  0
 32 33  1  0
 32 34  1  0
 34 35  1  0
 35 36  2  0
 35 37  1  0
 37 38  1  0
 37 39  1  0
 39 40  1  0
 40 41  2  0
 40 42  1  0
 42 43  1  0
 42 44  1  0
 44 45  1  0
 45 46  2  0
 45 47  1  0
 47 48  1  0
 47 49  1  0
 49 50  1  0
 50 51  2  0
 50 52  1  0
 52 53  1  0
 52 54  1  0
 54 55  1  0
 55 56  2  0
 18 57  1  0
 57 58  2  0
 57 59  1  0
 59 60  1  0
 60 61  1  0
 60 62  1  0
 62 63  2  0
 62 64  1  0
 64 65  1  0
 65 66  1  0
 65 67  1  0
 67 68  2  0
 67 69  1  0
 69 70  1  0
 70 71  1  0
 70 72  1  0
 72 73  2  0
 72 74  1  0
 74 75  1  0
 75 76  1  0
 75 77  1  0
 77 78  2  0
 77 79  1  0
 79 80  1  0
 80 81  1  0
 80 82  1  0
 82 83  2  0
 82 84  1  0
 84 85  1  0
 85 86  1  0
 85 87  1  0
 87 88  2  0
 87 89  1  0
 89 90  1  0
 90 91  1  0
 90 92  1  0
 92 93  2  0
 92 94  1  0
 94 95  1  0
 95 96  1  0
 96 97  1  0
 96 98  2  0
 95 99  1  0
 99100  1  0
100101  1  0
 55  5  1  0
 14  9  1  0
101 11  1  0
  1102  1  0
  1103  1  0
  1104  1  0
  4105  1  0
  5106  1  6
  6107  1  0
  6108  1  0
  8109  1  0
  8110  1  0
 10111  1  0
 12112  1  0
 14113  1  0
 15114  1  0
 15115  1  0
 17116  1  0
 17117  1  0
 18118  1  6
 19119  1  0
 22120  1  6
 23121  1  0
 23122  1  0
 23123  1  0
 24124  1  0
 27125  1  6
 28126  1  0
 28127  1  0
 28128  1  0
 29129  1  0
 32130  1  6
 33131  1  0
 33132  1  0
 33133  1  0
 34134  1  0
 37135  1  1
 38136  1  0
 38137  1  0
 38138  1  0
 39139  1  0
 42140  1  6
 43141  1  0
 43142  1  0
 43143  1  0
 44144  1  0
 47145  1  6
 48146  1  0
 48147  1  0
 48148  1  0
 49149  1  0
 52150  1  6
 53151  1  0
 53152  1  0
 53153  1  0
 54154  1  0
 59155  1  0
 60156  1  1
 61157  1  0
 61158  1  0
 61159  1  0
 64160  1  0
 65161  1  1
 66162  1  0
 66163  1  0
 66164  1  0
 69165  1  0
 70166  1  1
 71167  1  0
 71168  1  0
 71169  1  0
 74170  1  0
 75171  1  1
 76172  1  0
 76173  1  0
 76174  1  0
 79175  1  0
 80176  1  6
 81177  1  0
 81178  1  0
 81179  1  0
 84180  1  0
 85181  1  6
 86182  1  0
 86183  1  0
 86184  1  0
 89185  1  0
 90186  1  6
 91187  1  0
 91188  1  0
 91189  1  0
 94190  1  0
 95191  1  1
 97192  1  0
 97193  1  0
 99194  1  0
 99195  1  0
101196  1  0
101197  1  0
M  END
