
     RDKit          3D

197199  0  0  0  0  0  0  0  0999 V2000
   -3.7270   -6.7380   -4.6641 C   0  0  0  0  0  0  0  0  0  0  0  0
   -4.3002   -6.5853   -3.2953 C   0  0  0  0  0  0  0  0  0  0  0  0
   -4.9386   -7.5534   -2.8032 O   0  0  0  0  0  0  0  0  0  0  0  0
   -4.1329   -5.3577   -2.5609 N   0  0  0  0  0  0  0  0  0  0  0  0
   -4.6114   -5.1275   -1.1909 C   0  0  2  0  0  0  0  0  0  0  0  0
   -3.9480   -6.0984   -0.1970 C   0  0  0  0  0  0  0  0  0  0  0  0
   -2.1365   -5.8852   -0.1936 S   0  0  0  0  0  0  0  0  0  0  0  0
   -2.0664   -4.6049    1.1178 C   0  0  0  0  0  0  0  0  0  0  0  0
   -0.9192   -3.6843    0.8283 C   0  0  0  0  0  0  0  0  0  0  0  0
    0.1959   -3.6372    1.6840 C   0  0  0  0  0  0  0  0  0  0  0  0
    1.3185   -2.8570    1.3488 C   0  0  0  0  0  0  0  0  0  0  0  0
    1.3028   -2.1054    0.1642 C   0  0  0  0  0  0  0  0  0  0  0  0
    0.1578   -2.0828   -0.6474 C   0  0  0  0  0  0  0  0  0  0  0  0
   -0.9407   -2.8743   -0.3133 C   0  0  0  0  0  0  0  0  0  0  0  0
    0.0797   -1.1499   -1.8234 C   0  0  0  0  0  0  0  0  0  0  0  0
   -0.8176    0.3782   -1.3593 S   0  0  0  0  0  0  0  0  0  0  0  0
    0.6355    1.2077   -0.6213 C   0  0  0  0  0  0  0  0  0  0  0  0
    0.2836    2.5967   -0.0671 C   0  0  2  0  0  0  0  0  0  0  0  0
   -0.2846    3.4661   -1.1004 N   0  0  0  0  0  0  0  0  0  0  0  0
   -1.1690    4.5720   -0.8506 C   0  0  0  0  0  0  0  0  0  0  0  0
   -1.6012    5.2285   -1.8367 O   0  0  0  0  0  0  0  0  0  0  0  0
   -1.6205    4.9812    0.5406 C   0  0  1  0  0  0  0  0  0  0  0  0
   -1.1932    6.4225    0.8201 C   0  0  0  0  0  0  0  0  0  0  0  0
   -3.0773    4.8502    0.6582 N   0  0  0  0  0  0  0  0  0  0  0  0
   -3.7579    4.9764    1.9229 C   0  0  0  0  0  0  0  0  0  0  0  0
   -3.1070    4.8442    2.9908 O   0  0  0  0  0  0  0  0  0  0  0  0
   -5.2412    5.2807    2.0151 C   0  0  1  0  0  0  0  0  0  0  0  0
   -5.4544    6.6256    2.7148 C   0  0  0  0  0  0  0  0  0  0  0  0
   -5.8795    5.3121    0.6938 N   0  0  0  0  0  0  0  0  0  0  0  0
   -6.7029    4.2319    0.2331 C   0  0  0  0  0  0  0  0  0  0  0  0
   -6.1939    3.3433   -0.5054 O   0  0  0  0  0  0  0  0  0  0  0  0
   -8.1819    4.1615    0.5401 C   0  0  1  0  0  0  0  0  0  0  0  0
   -8.6248    5.2212    1.5564 C   0  0  0  0  0  0  0  0  0  0  0  0
   -8.9417    4.3396   -0.7012 N   0  0  0  0  0  0  0  0  0  0  0  0
  -10.2857    3.8650   -0.8866 C   0  0  0  0  0  0  0  0  0  0  0  0
  -11.0898    4.5884   -1.5378 O   0  0  0  0  0  0  0  0  0  0  0  0
  -10.7649    2.5442   -0.3135 C   0  0  1  0  0  0  0  0  0  0  0  0
  -11.4222    2.7568    1.0549 C   0  0  0  0  0  0  0  0  0  0  0  0
  -11.7290    1.9111   -1.2233 N   0  0  0  0  0  0  0  0  0  0  0  0
  -11.7841    0.4941   -1.4805 C   0  0  0  0  0  0  0  0  0  0  0  0
  -12.2064    0.1095   -2.6030 O   0  0  0  0  0  0  0  0  0  0  0  0
  -11.5507   -0.5245   -0.3863 C   0  0  1  0  0  0  0  0  0  0  0  0
  -12.9054   -0.9095    0.2357 C   0  0  0  0  0  0  0  0  0  0  0  0
  -10.8729   -1.7234   -0.9063 N   0  0  0  0  0  0  0  0  0  0  0  0
  -10.3190   -2.7771   -0.0924 C   0  0  0  0  0  0  0  0  0  0  0  0
   -9.9824   -3.8536   -0.6568 O   0  0  0  0  0  0  0  0  0  0  0  0
  -10.1093   -2.6390    1.4121 C   0  0  1  0  0  0  0  0  0  0  0  0
  -10.8973   -3.7275    2.1423 C   0  0  0  0  0  0  0  0  0  0  0  0
   -8.6940   -2.7437    1.7995 N   0  0  0  0  0  0  0  0  0  0  0  0
   -7.5787   -2.8094    0.8892 C   0  0  0  0  0  0  0  0  0  0  0  0
   -7.5587   -2.0761   -0.1337 O   0  0  0  0  0  0  0  0  0  0  0  0
   -6.5129   -3.8669    1.0430 C   0  0  1  0  0  0  0  0  0  0  0  0
   -6.4004   -4.4038    2.4766 C   0  0  0  0  0  0  0  0  0  0  0  0
   -6.8261   -4.9704    0.1288 N   0  0  0  0  0  0  0  0  0  0  0  0
   -6.1269   -5.2150   -1.1023 C   0  0  0  0  0  0  0  0  0  0  0  0
   -6.7976   -5.5307   -2.1228 O   0  0  0  0  0  0  0  0  0  0  0  0
    1.4881    3.2112    0.6299 C   0  0  0  0  0  0  0  0  0  0  0  0
    1.8957    2.6336    1.6765 O   0  0  0  0  0  0  0  0  0  0  0  0
    2.1581    4.4250    0.2270 N   0  0  0  0  0  0  0  0  0  0  0  0
    2.4104    4.9101   -1.1458 C   0  0  2  0  0  0  0  0  0  0  0  0
    3.0835    3.8177   -1.9881 C   0  0  0  0  0  0  0  0  0  0  0  0
    3.2921    6.1534   -1.1124 C   0  0  0  0  0  0  0  0  0  0  0  0
    3.1716    6.9890   -0.1794 O   0  0  0  0  0  0  0  0  0  0  0  0
    4.2215    6.4131   -2.1667 N   0  0  0  0  0  0  0  0  0  0  0  0
    5.5271    7.0350   -1.9226 C   0  0  2  0  0  0  0  0  0  0  0  0
    6.3105    7.1849   -3.2364 C   0  0  0  0  0  0  0  0  0  0  0  0
    6.3198    6.2431   -0.9093 C   0  0  0  0  0  0  0  0  0  0  0  0
    6.3233    6.6198    0.2961 O   0  0  0  0  0  0  0  0  0  0  0  0
    7.0776    5.0861   -1.2885 N   0  0  0  0  0  0  0  0  0  0  0  0
    8.3414    4.7446   -0.6307 C   0  0  2  0  0  0  0  0  0  0  0  0
    9.3203    5.9208   -0.7507 C   0  0  0  0  0  0  0  0  0  0  0  0
    8.9765    3.5126   -1.2448 C   0  0  0  0  0  0  0  0  0  0  0  0
    8.9241    3.3545   -2.4939 O   0  0  0  0  0  0  0  0  0  0  0  0
    9.6901    2.5414   -0.4585 N   0  0  0  0  0  0  0  0  0  0  0  0
   10.5666    2.9181    0.6589 C   0  0  2  0  0  0  0  0  0  0  0  0
   11.9662    3.2508    0.1296 C   0  0  0  0  0  0  0  0  0  0  0  0
   10.6638    1.8236    1.6907 C   0  0  0  0  0  0  0  0  0  0  0  0
   11.0516    2.1178    2.8568 O   0  0  0  0  0  0  0  0  0  0  0  0
   10.4483    0.4470    1.3603 N   0  0  0  0  0  0  0  0  0  0  0  0
    9.0910   -0.1142    1.3656 C   0  0  2  0  0  0  0  0  0  0  0  0
    8.6972   -0.4991    2.7903 C   0  0  0  0  0  0  0  0  0  0  0  0
    8.9761   -1.3215    0.4644 C   0  0  0  0  0  0  0  0  0  0  0  0
    7.9668   -1.4191   -0.2888 O   0  0  0  0  0  0  0  0  0  0  0  0
    9.9523   -2.3724    0.4823 N   0  0  0  0  0  0  0  0  0  0  0  0
    9.6467   -3.7593    0.0998 C   0  0  2  0  0  0  0  0  0  0  0  0
   10.8809   -4.6477    0.3230 C   0  0  0  0  0  0  0  0  0  0  0  0
    9.2138   -3.8465   -1.3397 C   0  0  0  0  0  0  0  0  0  0  0  0
    9.9487   -3.3241   -2.2240 O   0  0  0  0  0  0  0  0  0  0  0  0
    7.9961   -4.5015   -1.7574 N   0  0  0  0  0  0  0  0  0  0  0  0
    7.2177   -5.4576   -0.9470 C   0  0  2  0  0  0  0  0  0  0  0  0
    8.0834   -6.6699   -0.5544 C   0  0  0  0  0  0  0  0  0  0  0  0
    6.0212   -5.9435   -1.7286 C   0  0  0  0  0  0  0  0  0  0  0  0
    6.2246   -6.4371   -2.8756 O   0  0  0  0  0  0  0  0  0  0  0  0
    4.6686   -5.8958   -1.2270 N   0  0  0  0  0  0  0  0  0  0  0  0
    4.2429   -5.9023    0.1762 C   0  0  1  0  0  0  0  0  0  0  0  0
    5.0708   -6.8591    1.0104 C   0  0  0  0  0  0  0  0  0  0  0  0
    5.9836   -6.4210    2.0205 N   0  0  0  0  0  0  0  0  0  0  0  0
    4.9544   -8.0961    0.7918 O   0  0  0  0  0  0  0  0  0  0  0  0
    4.1165   -4.4718    0.7251 C   0  0  0  0  0  0  0  0  0  0  0  0
    3.2851   -4.4926    2.3566 S   0  0  0  0  0  0  0  0  0  0  0  0
    2.5303   -2.8323    2.2462 C   0  0  0  0  0  0  0  0  0  0  0  0
   -4.5461   -6.8563   -5.4043 H   0  0  0  0  0  0  0  0  0  0  0  0
   -3.1217   -5.8525   -4.9424 H   0  0  0  0  0  0  0  0  0  0  0  0
   -3.0748   -7.6362   -4.6984 H   0  0  0  0  0  0  0  0  0  0  0  0
   -3.6277   -4.5722   -3.0301 H   0  0  0  0  0  0  0  0  0  0  0  0
   -4.3209   -4.0919   -0.9096 H   0  0  0  0  0  0  0  0  0  0  0  0
   -4.1707   -7.1458   -0.4671 H   0  0  0  0  0  0  0  0  0  0  0  0
   -4.3438   -5.9470    0.8232 H   0  0  0  0  0  0  0  0  0  0  0  0
   -3.0006   -4.0052    1.1492 H   0  0  0  0  0  0  0  0  0  0  0  0
   -1.9413   -5.1192    2.0973 H   0  0  0  0  0  0  0  0  0  0  0  0
    0.2274   -4.2539    2.5759 H   0  0  0  0  0  0  0  0  0  0  0  0
    2.1640   -1.5046   -0.0948 H   0  0  0  0  0  0  0  0  0  0  0  0
   -1.8118   -2.8726   -0.9498 H   0  0  0  0  0  0  0  0  0  0  0  0
    1.0883   -0.9159   -2.2102 H   0  0  0  0  0  0  0  0  0  0  0  0
   -0.4761   -1.6387   -2.6425 H   0  0  0  0  0  0  0  0  0  0  0  0
    1.4234    1.2585   -1.3930 H   0  0  0  0  0  0  0  0  0  0  0  0
    1.0187    0.5775    0.2108 H   0  0  0  0  0  0  0  0  0  0  0  0
   -0.4945    2.4041    0.6990 H   0  0  0  0  0  0  0  0  0  0  0  0
   -0.0531    3.2654   -2.0990 H   0  0  0  0  0  0  0  0  0  0  0  0
   -1.1412    4.3525    1.3150 H   0  0  0  0  0  0  0  0  0  0  0  0
   -1.7106    7.1164    0.1279 H   0  0  0  0  0  0  0  0  0  0  0  0
   -1.4408    6.7080    1.8632 H   0  0  0  0  0  0  0  0  0  0  0  0
   -0.0963    6.5307    0.6843 H   0  0  0  0  0  0  0  0  0  0  0  0
   -3.6368    4.6471   -0.1984 H   0  0  0  0  0  0  0  0  0  0  0  0
   -5.7265    4.4904    2.6378 H   0  0  0  0  0  0  0  0  0  0  0  0
   -5.0879    6.5739    3.7639 H   0  0  0  0  0  0  0  0  0  0  0  0
   -4.9078    7.4348    2.1757 H   0  0  0  0  0  0  0  0  0  0  0  0
   -6.5329    6.8884    2.7337 H   0  0  0  0  0  0  0  0  0  0  0  0
   -5.5428    6.0090   -0.0140 H   0  0  0  0  0  0  0  0  0  0  0  0
   -8.3837    3.1604    0.9734 H   0  0  0  0  0  0  0  0  0  0  0  0
   -8.1363    5.0449    2.5327 H   0  0  0  0  0  0  0  0  0  0  0  0
   -9.7207    5.1698    1.7120 H   0  0  0  0  0  0  0  0  0  0  0  0
   -8.3786    6.2407    1.1844 H   0  0  0  0  0  0  0  0  0  0  0  0
   -8.6280    5.1005   -1.3488 H   0  0  0  0  0  0  0  0  0  0  0  0
   -9.8842    1.8749   -0.1997 H   0  0  0  0  0  0  0  0  0  0  0  0
  -10.6543    2.9782    1.8228 H   0  0  0  0  0  0  0  0  0  0  0  0
  -12.1567    3.5843    1.0185 H   0  0  0  0  0  0  0  0  0  0  0  0
  -11.9527    1.8383    1.3732 H   0  0  0  0  0  0  0  0  0  0  0  0
  -12.4037    2.5143   -1.7496 H   0  0  0  0  0  0  0  0  0  0  0  0
  -10.9114   -0.0631    0.3886 H   0  0  0  0  0  0  0  0  0  0  0  0
  -13.3038   -0.0724    0.8417 H   0  0  0  0  0  0  0  0  0  0  0  0
  -12.7992   -1.7891    0.8913 H   0  0  0  0  0  0  0  0  0  0  0  0
  -13.6356   -1.1749   -0.5592 H   0  0  0  0  0  0  0  0  0  0  0  0
  -10.8241   -1.8656   -1.9411 H   0  0  0  0  0  0  0  0  0  0  0  0
  -10.4799   -1.6643    1.7795 H   0  0  0  0  0  0  0  0  0  0  0  0
  -10.4786   -4.7313    1.9221 H   0  0  0  0  0  0  0  0  0  0  0  0
  -10.8418   -3.5628    3.2391 H   0  0  0  0  0  0  0  0  0  0  0  0
  -11.9634   -3.7172    1.8529 H   0  0  0  0  0  0  0  0  0  0  0  0
   -8.4860   -2.7997    2.8201 H   0  0  0  0  0  0  0  0  0  0  0  0
   -5.5431   -3.4022    0.7842 H   0  0  0  0  0  0  0  0  0  0  0  0
   -5.5874   -5.1548    2.5378 H   0  0  0  0  0  0  0  0  0  0  0  0
   -7.3464   -4.8999    2.7891 H   0  0  0  0  0  0  0  0  0  0  0  0
   -6.1549   -3.5747    3.1765 H   0  0  0  0  0  0  0  0  0  0  0  0
   -7.7497   -5.4507    0.2523 H   0  0  0  0  0  0  0  0  0  0  0  0
    2.6808    4.8962    1.0064 H   0  0  0  0  0  0  0  0  0  0  0  0
    1.4568    5.2129   -1.6178 H   0  0  0  0  0  0  0  0  0  0  0  0
    3.2927    4.1756   -3.0178 H   0  0  0  0  0  0  0  0  0  0  0  0
    4.0405    3.4945   -1.5168 H   0  0  0  0  0  0  0  0  0  0  0  0
    2.4160    2.9589   -2.1107 H   0  0  0  0  0  0  0  0  0  0  0  0
    3.8348    6.4438   -3.1466 H   0  0  0  0  0  0  0  0  0  0  0  0
    5.3681    8.0609   -1.5155 H   0  0  0  0  0  0  0  0  0  0  0  0
    6.3875    6.2074   -3.7614 H   0  0  0  0  0  0  0  0  0  0  0  0
    5.7924    7.9059   -3.9100 H   0  0  0  0  0  0  0  0  0  0  0  0
    7.3371    7.5689   -3.0396 H   0  0  0  0  0  0  0  0  0  0  0  0
    6.7071    4.4922   -2.0691 H   0  0  0  0  0  0  0  0  0  0  0  0
    8.1380    4.5511    0.4471 H   0  0  0  0  0  0  0  0  0  0  0  0
   10.2901    5.6857   -0.2718 H   0  0  0  0  0  0  0  0  0  0  0  0
    9.4997    6.1663   -1.8223 H   0  0  0  0  0  0  0  0  0  0  0  0
    8.9199    6.8209   -0.2435 H   0  0  0  0  0  0  0  0  0  0  0  0
    9.8996    1.6332   -0.9361 H   0  0  0  0  0  0  0  0  0  0  0  0
   10.1619    3.8178    1.1725 H   0  0  0  0  0  0  0  0  0  0  0  0
   12.4402    2.3437   -0.3034 H   0  0  0  0  0  0  0  0  0  0  0  0
   12.6076    3.6352    0.9520 H   0  0  0  0  0  0  0  0  0  0  0  0
   11.9092    4.0259   -0.6626 H   0  0  0  0  0  0  0  0  0  0  0  0
   11.2277   -0.1842    1.6457 H   0  0  0  0  0  0  0  0  0  0  0  0
    8.3735    0.6597    1.0114 H   0  0  0  0  0  0  0  0  0  0  0  0
    7.6660   -0.9197    2.8063 H   0  0  0  0  0  0  0  0  0  0  0  0
    8.7118    0.3970    3.4509 H   0  0  0  0  0  0  0  0  0  0  0  0
    9.4046   -1.2558    3.2002 H   0  0  0  0  0  0  0  0  0  0  0  0
   10.9170   -2.1679    0.8309 H   0  0  0  0  0  0  0  0  0  0  0  0
    8.8369   -4.1221    0.7672 H   0  0  0  0  0  0  0  0  0  0  0  0
   11.0801   -4.7533    1.4105 H   0  0  0  0  0  0  0  0  0  0  0  0
   11.7730   -4.2034   -0.1672 H   0  0  0  0  0  0  0  0  0  0  0  0
   10.7345   -5.6639   -0.1043 H   0  0  0  0  0  0  0  0  0  0  0  0
    7.6826   -4.2958   -2.7374 H   0  0  0  0  0  0  0  0  0  0  0  0
    6.8801   -4.9445   -0.0267 H   0  0  0  0  0  0  0  0  0  0  0  0
    8.6611   -6.4581    0.3645 H   0  0  0  0  0  0  0  0  0  0  0  0
    7.4526   -7.5533   -0.3257 H   0  0  0  0  0  0  0  0  0  0  0  0
    8.7738   -6.9412   -1.3816 H   0  0  0  0  0  0  0  0  0  0  0  0
    3.9237   -6.0824   -1.9427 H   0  0  0  0  0  0  0  0  0  0  0  0
    3.2103   -6.3137    0.2006 H   0  0  0  0  0  0  0  0  0  0  0  0
    6.5763   -7.1184    2.5177 H   0  0  0  0  0  0  0  0  0  0  0  0
    6.1463   -5.4125    2.2315 H   0  0  0  0  0  0  0  0  0  0  0  0
    5.0936   -3.9588    0.8212 H   0  0  0  0  0  0  0  0  0  0  0  0
    3.5066   -3.8891   -0.0022 H   0  0  0  0  0  0  0  0  0  0  0  0
    2.2074   -2.5175    3.2587 H   0  0  0  0  0  0  0  0  0  0  0  0
    3.2827   -2.0920    1.8982 H   0  0  0  0  0  0  0  0  0  0  0  0
  1  2  1  0
  2  3  2  0
  2  4  1  0
  4  5  1  0
  5  6  1  0
  6  7  1  0
  7  8  1  0
  8  9  1  0
  9 10  2  0
 10 11  1  0
 11 12  2  0
 12 13  1  0
 13 14  2  0
 13 15  1  0
 15 16  1  0
 16 17  1  0
 17 18  1  0
 18 19  1  0
 19 20  1  0
 20 21  2  0
 20 22  1  0
 22 23  1  0
 22 24  1  0
 24 25  1  0
 25 26  2  0
 25 27  1  0
 27 28  1  0
 27 29  1  0
 29 30  1  0
 30 31  2  0
 30 32  1  0
 32 33  1  0
 32 34  1  0
 34 35  1  0
 35 36  2  0
 35 37  1  0
 37 38  1  0
 37 39  1  0
 39 40  1  0
 40 41  2  0
 40 42  1  0
 42 43  1  0
 42 44  1  0
 44 45  1  0
 45 46  2  0
 45 47  1  0
 47 48  1  0
 47 49  1  0
 49 50  1  0
 50 51  2  0
 50 52  1  0
 52 53  1  0
 52 54  1  0
 54 55  1  0
 55 56  2  0
 18 57  1  0
 57 58  2  0
 57 59  1  0
 59 60  1  0
 60 61  1  0
 60 62  1  0
 62 63  2  0
 62 64  1  0
 64 65  1  0
 65 66  1  0
 65 67  1  0
 67 68  2  0
 67 69  1  0
 69 70  1  0
 70 71  1  0
 70 72  1  0
 72 73  2  0
 72 74  1  0
 74 75  1  0
 75 76  1  0
 75 77  1  0
 77 78  2  0
 77 79  1  0
 79 80  1  0
 80 81  1  0
 80 82  1  0
 82 83  2  0
 82 84  1  0
 84 85  1  0
 85 86  1  0
 85 87  1  0
 87 88  2  0
 87 89  1  0
 89 90  1  0
 90 91  1  0
 90 92  1  0
 92 93  2  0
 92 94  1  0
 94 95  1  0
 95 96  1  0
 96 97  1  0
 96 98  2  0
 95 99  1  0
 99100  1  0
100101  1  0
 55  5  1  0
 14  9  1  0
101 11  1  0
  1102  1  0
  1103  1  0
  1104  1  0
  4105  1  0
  5106  1  1
  6107  1  0
  6108  1  0
  8109  1  0
  8110  1  0
 10111  1  0
 12112  1  0
 14113  1  0
 15114  1  0
 15115  1  0
 17116  1  0
 17117  1  0
 18118  1  1
 19119  1  0
 22120  1  1
 23121  1  0
 23122  1  0
 23123  1  0
 24124  1  0
 27125  1  1
 28126  1  0
 28127  1  0
 28128  1  0
 29129  1  0
 32130  1  1
 33131  1  0
 33132  1  0
 33133  1  0
 34134  1  0
 37135  1  1
 38136  1  0
 38137  1  0
 38138  1  0
 39139  1  0
 42140  1  1
 43141  1  0
 43142  1  0
 43143  1  0
 44144  1  0
 47145  1  1
 48146  1  0
 48147  1  0
 48148  1  0
 49149  1  0
 52150  1  6
 53151  1  0
 53152  1  0
 53153  1  0
 54154  1  0
 59155  1  0
 60156  1  6
 61157  1  0
 61158  1  0
 61159  1  0
 64160  1  0
 65161  1  1
 66162  1  0
 66163  1  0
 66164  1  0
 69165  1  0
 70166  1  1
 71167  1  0
 71168  1  0
 71169  1  0
 74170  1  0
 75171  1  1
 76172  1  0
 76173  1  0
 76174  1  0
 79175  1  0
 80176  1  6
 81177  1  0
 81178  1  0
 81179  1  0
 84180  1  0
 85181  1  1
 86182  1  0
 86183  1  0
 86184  1  0
 89185  1  0
 90186  1  1
 91187  1  0
 91188  1  0
 91189  1  0
 94190  1  0
 95191  1  6
 97192  1  0
 97193  1  0
 99194  1  0
 99195  1  0
101196  1  0
101197  1  0
M  END
