
     RDKit          3D

187189  0  0  0  0  0  0  0  0999 V2000
    4.6066   -8.7275   -0.0301 C   0  0  0  0  0  0  0  0  0  0  0  0
    3.9595   -7.3981   -0.2423 C   0  0  0  0  0  0  0  0  0  0  0  0
    3.4463   -6.8102    0.7474 O   0  0  0  0  0  0  0  0  0  0  0  0
    3.8507   -6.8389   -1.5571 N   0  0  0  0  0  0  0  0  0  0  0  0
    4.2766   -5.4757   -1.9052 C   0  0  1  0  0  0  0  0  0  0  0  0
    3.5994   -4.3938   -1.0425 C   0  0  0  0  0  0  0  0  0  0  0  0
    1.7777   -4.4647   -1.2013 S   0  0  0  0  0  0  0  0  0  0  0  0
    1.4756   -3.4806    0.3105 C   0  0  0  0  0  0  0  0  0  0  0  0
    0.0833   -2.9113    0.3269 C   0  0  0  0  0  0  0  0  0  0  0  0
   -1.0445   -3.7438    0.4254 C   0  0  0  0  0  0  0  0  0  0  0  0
   -2.3388   -3.1973    0.4746 C   0  0  0  0  0  0  0  0  0  0  0  0
   -2.4882   -1.7940    0.4391 C   0  0  0  0  0  0  0  0  0  0  0  0
   -1.3654   -0.9587    0.4083 C   0  0  0  0  0  0  0  0  0  0  0  0
   -0.0900   -1.5187    0.3122 C   0  0  0  0  0  0  0  0  0  0  0  0
   -1.5085    0.5246    0.5520 C   0  0  0  0  0  0  0  0  0  0  0  0
   -1.0980    1.3668   -1.0177 S   0  0  0  0  0  0  0  0  0  0  0  0
   -1.1687    3.0457   -0.3092 C   0  0  0  0  0  0  0  0  0  0  0  0
   -0.5047    4.0937   -1.2286 C   0  0  2  0  0  0  0  0  0  0  0  0
    0.7974    3.6448   -1.7508 N   0  0  0  0  0  0  0  0  0  0  0  0
    2.0546    3.5270   -1.0438 C   0  0  0  0  0  0  0  0  0  0  0  0
    3.0672    3.1319   -1.6816 O   0  0  0  0  0  0  0  0  0  0  0  0
    2.2228    3.8602    0.4265 C   0  0  1  0  0  0  0  0  0  0  0  0
    3.0781    2.8043    1.1335 C   0  0  0  0  0  0  0  0  0  0  0  0
    2.8100    5.1905    0.6505 N   0  0  0  0  0  0  0  0  0  0  0  0
    3.7474    5.8174   -0.2453 C   0  0  0  0  0  0  0  0  0  0  0  0
    3.4312    5.9904   -1.4513 O   0  0  0  0  0  0  0  0  0  0  0  0
    5.1124    6.2769    0.2158 C   0  0  1  0  0  0  0  0  0  0  0  0
    5.2389    6.4053    1.7410 C   0  0  0  0  0  0  0  0  0  0  0  0
    6.1260    5.3391   -0.2670 N   0  0  0  0  0  0  0  0  0  0  0  0
    7.0234    5.6895   -1.3232 C   0  0  0  0  0  0  0  0  0  0  0  0
    6.5509    6.0903   -2.4286 O   0  0  0  0  0  0  0  0  0  0  0  0
    8.5182    5.6154   -1.1417 C   0  0  1  0  0  0  0  0  0  0  0  0
    8.9446    5.7479    0.3289 C   0  0  0  0  0  0  0  0  0  0  0  0
    9.0792    4.4039   -1.7512 N   0  0  0  0  0  0  0  0  0  0  0  0
    8.9365    3.0935   -1.1823 C   0  0  0  0  0  0  0  0  0  0  0  0
    7.7974    2.6972   -0.8180 O   0  0  0  0  0  0  0  0  0  0  0  0
   10.1143    2.1613   -1.0468 C   0  0  1  0  0  0  0  0  0  0  0  0
   11.4552    2.9013   -1.0794 C   0  0  0  0  0  0  0  0  0  0  0  0
   10.0046    1.4209    0.2105 N   0  0  0  0  0  0  0  0  0  0  0  0
    9.5732    0.0572    0.2357 C   0  0  0  0  0  0  0  0  0  0  0  0
    8.3451   -0.1940    0.3879 O   0  0  0  0  0  0  0  0  0  0  0  0
   10.5528   -1.0842    0.1781 C   0  0  1  0  0  0  0  0  0  0  0  0
   11.9795   -0.6303   -0.1606 C   0  0  0  0  0  0  0  0  0  0  0  0
   10.5657   -1.7806    1.4672 N   0  0  0  0  0  0  0  0  0  0  0  0
   10.2948   -3.1715    1.6758 C   0  0  0  0  0  0  0  0  0  0  0  0
   10.5367   -3.6653    2.8116 O   0  0  0  0  0  0  0  0  0  0  0  0
    9.7638   -4.0711    0.5861 C   0  0  1  0  0  0  0  0  0  0  0  0
   10.9067   -4.5511   -0.3110 C   0  0  0  0  0  0  0  0  0  0  0  0
    9.0945   -5.2356    1.1727 N   0  0  0  0  0  0  0  0  0  0  0  0
    7.8582   -5.7734    0.6580 C   0  0  0  0  0  0  0  0  0  0  0  0
    7.8020   -7.0063    0.3964 O   0  0  0  0  0  0  0  0  0  0  0  0
    6.6230   -4.9295    0.4512 C   0  0  1  0  0  0  0  0  0  0  0  0
    6.5464   -3.6880    1.3547 C   0  0  0  0  0  0  0  0  0  0  0  0
    6.4989   -4.5602   -0.9623 N   0  0  0  0  0  0  0  0  0  0  0  0
    5.7847   -5.3903   -1.8877 C   0  0  0  0  0  0  0  0  0  0  0  0
    6.4442   -6.0619   -2.7340 O   0  0  0  0  0  0  0  0  0  0  0  0
   -0.4122    5.4690   -0.6127 C   0  0  0  0  0  0  0  0  0  0  0  0
    0.0571    6.4229   -1.2862 O   0  0  0  0  0  0  0  0  0  0  0  0
   -0.9089    5.7201    0.7051 N   0  0  0  0  0  0  0  0  0  0  0  0
   -2.1673    6.4558    0.9456 C   0  0  2  0  0  0  0  0  0  0  0  0
   -2.5442    6.3598    2.4283 C   0  0  0  0  0  0  0  0  0  0  0  0
   -3.2784    6.0012    0.0199 C   0  0  0  0  0  0  0  0  0  0  0  0
   -3.2002    6.2996   -1.2030 O   0  0  0  0  0  0  0  0  0  0  0  0
   -4.4420    5.3027    0.4971 N   0  0  0  0  0  0  0  0  0  0  0  0
   -5.7091    5.3460   -0.2424 C   0  0  2  0  0  0  0  0  0  0  0  0
   -6.2417    6.7821   -0.3093 C   0  0  0  0  0  0  0  0  0  0  0  0
   -6.7404    4.4546    0.3958 C   0  0  0  0  0  0  0  0  0  0  0  0
   -7.1369    4.6949    1.5667 O   0  0  0  0  0  0  0  0  0  0  0  0
   -7.3471    3.3955   -0.3667 N   0  0  0  0  0  0  0  0  0  0  0  0
   -8.8062    3.2573   -0.5246 C   0  0  2  0  0  0  0  0  0  0  0  0
   -9.4618    4.6183   -0.7857 C   0  0  0  0  0  0  0  0  0  0  0  0
   -9.4463    2.5666    0.6602 C   0  0  0  0  0  0  0  0  0  0  0  0
   -8.9471    2.7202    1.8127 O   0  0  0  0  0  0  0  0  0  0  0  0
  -10.6775    1.8273    0.5425 N   0  0  0  0  0  0  0  0  0  0  0  0
  -11.3760    1.5329   -0.7192 C   0  0  2  0  0  0  0  0  0  0  0  0
  -12.8726    1.3540   -0.4598 C   0  0  0  0  0  0  0  0  0  0  0  0
  -10.7680    0.3199   -1.3783 C   0  0  0  0  0  0  0  0  0  0  0  0
  -10.4261    0.3840   -2.5857 O   0  0  0  0  0  0  0  0  0  0  0  0
  -10.5043   -0.8686   -0.6351 N   0  0  0  0  0  0  0  0  0  0  0  0
  -11.5421   -1.8706   -0.3810 C   0  0  2  0  0  0  0  0  0  0  0  0
  -11.5357   -2.2609    1.0992 C   0  0  0  0  0  0  0  0  0  0  0  0
  -11.3308   -3.0889   -1.2436 C   0  0  0  0  0  0  0  0  0  0  0  0
  -12.2263   -3.4303   -2.0663 O   0  0  0  0  0  0  0  0  0  0  0  0
  -10.1254   -3.8623   -1.1466 N   0  0  0  0  0  0  0  0  0  0  0  0
  -10.0706   -5.2698   -0.7178 C   0  0  2  0  0  0  0  0  0  0  0  0
  -11.4615   -5.9299   -0.6410 C   0  0  0  0  0  0  0  0  0  0  0  0
   -9.3281   -5.3565    0.6074 C   0  0  0  0  0  0  0  0  0  0  0  0
   -9.9179   -5.7891    1.6287 O   0  0  0  0  0  0  0  0  0  0  0  0
   -7.9774   -4.8877    0.7394 N   0  0  0  0  0  0  0  0  0  0  0  0
   -6.9333   -5.1069   -0.2746 C   0  0  2  0  0  0  0  0  0  0  0  0
   -6.0914   -6.3150    0.0512 C   0  0  0  0  0  0  0  0  0  0  0  0
   -5.6349   -6.5688    1.3820 N   0  0  0  0  0  0  0  0  0  0  0  0
   -5.7599   -7.1135   -0.8745 O   0  0  0  0  0  0  0  0  0  0  0  0
   -6.0873   -3.8350   -0.4811 C   0  0  0  0  0  0  0  0  0  0  0  0
   -5.1235   -3.3275    1.0005 S   0  0  0  0  0  0  0  0  0  0  0  0
   -3.5239   -4.1445    0.5747 C   0  0  0  0  0  0  0  0  0  0  0  0
    5.0433   -9.1149   -0.9728 H   0  0  0  0  0  0  0  0  0  0  0  0
    3.8612   -9.4539    0.3528 H   0  0  0  0  0  0  0  0  0  0  0  0
    5.4203   -8.6258    0.7215 H   0  0  0  0  0  0  0  0  0  0  0  0
    3.7176   -7.5036   -2.3479 H   0  0  0  0  0  0  0  0  0  0  0  0
    3.9586   -5.2760   -2.9502 H   0  0  0  0  0  0  0  0  0  0  0  0
    3.9523   -3.3931   -1.3784 H   0  0  0  0  0  0  0  0  0  0  0  0
    3.8916   -4.5036    0.0155 H   0  0  0  0  0  0  0  0  0  0  0  0
    2.2204   -2.6504    0.3406 H   0  0  0  0  0  0  0  0  0  0  0  0
    1.6471   -4.1150    1.2075 H   0  0  0  0  0  0  0  0  0  0  0  0
   -0.9099   -4.8098    0.4968 H   0  0  0  0  0  0  0  0  0  0  0  0
   -3.4672   -1.3370    0.4752 H   0  0  0  0  0  0  0  0  0  0  0  0
    0.7757   -0.8650    0.2789 H   0  0  0  0  0  0  0  0  0  0  0  0
   -2.5318    0.8091    0.8723 H   0  0  0  0  0  0  0  0  0  0  0  0
   -0.8106    0.8604    1.3461 H   0  0  0  0  0  0  0  0  0  0  0  0
   -0.6996    3.0450    0.6896 H   0  0  0  0  0  0  0  0  0  0  0  0
   -2.2396    3.3109   -0.1686 H   0  0  0  0  0  0  0  0  0  0  0  0
   -1.1828    4.1931   -2.0997 H   0  0  0  0  0  0  0  0  0  0  0  0
    0.8290    3.4218   -2.7747 H   0  0  0  0  0  0  0  0  0  0  0  0
    1.2502    3.8494    0.9338 H   0  0  0  0  0  0  0  0  0  0  0  0
    4.1216    2.8312    0.7614 H   0  0  0  0  0  0  0  0  0  0  0  0
    3.0837    2.9915    2.2264 H   0  0  0  0  0  0  0  0  0  0  0  0
    2.6519    1.7913    0.9526 H   0  0  0  0  0  0  0  0  0  0  0  0
    2.7394    5.5546    1.6255 H   0  0  0  0  0  0  0  0  0  0  0  0
    5.2910    7.2822   -0.2168 H   0  0  0  0  0  0  0  0  0  0  0  0
    4.4904    7.1259    2.1343 H   0  0  0  0  0  0  0  0  0  0  0  0
    6.2551    6.7794    2.0041 H   0  0  0  0  0  0  0  0  0  0  0  0
    5.0964    5.4150    2.2291 H   0  0  0  0  0  0  0  0  0  0  0  0
    6.2355    4.4143    0.2128 H   0  0  0  0  0  0  0  0  0  0  0  0
    8.9515    6.4982   -1.6718 H   0  0  0  0  0  0  0  0  0  0  0  0
   10.0518    5.7937    0.3958 H   0  0  0  0  0  0  0  0  0  0  0  0
    8.5881    4.8823    0.9282 H   0  0  0  0  0  0  0  0  0  0  0  0
    8.5227    6.6811    0.7613 H   0  0  0  0  0  0  0  0  0  0  0  0
    9.7484    4.5277   -2.5442 H   0  0  0  0  0  0  0  0  0  0  0  0
   10.0889    1.4545   -1.9080 H   0  0  0  0  0  0  0  0  0  0  0  0
   11.4722    3.7288   -0.3320 H   0  0  0  0  0  0  0  0  0  0  0  0
   11.6516    3.3211   -2.0925 H   0  0  0  0  0  0  0  0  0  0  0  0
   12.2893    2.2091   -0.8500 H   0  0  0  0  0  0  0  0  0  0  0  0
   10.0181    1.9458    1.1131 H   0  0  0  0  0  0  0  0  0  0  0  0
   10.2258   -1.7525   -0.6424 H   0  0  0  0  0  0  0  0  0  0  0  0
   12.3392    0.1124    0.5757 H   0  0  0  0  0  0  0  0  0  0  0  0
   12.6694   -1.5005   -0.1393 H   0  0  0  0  0  0  0  0  0  0  0  0
   12.0123   -0.1970   -1.1830 H   0  0  0  0  0  0  0  0  0  0  0  0
   10.8457   -1.2204    2.3078 H   0  0  0  0  0  0  0  0  0  0  0  0
    9.0499   -3.5102   -0.0455 H   0  0  0  0  0  0  0  0  0  0  0  0
   11.6141   -5.1923    0.2616 H   0  0  0  0  0  0  0  0  0  0  0  0
   11.4671   -3.6955   -0.7396 H   0  0  0  0  0  0  0  0  0  0  0  0
   10.4891   -5.1379   -1.1573 H   0  0  0  0  0  0  0  0  0  0  0  0
    9.6877   -5.9097    1.7048 H   0  0  0  0  0  0  0  0  0  0  0  0
    5.7683   -5.5721    0.7414 H   0  0  0  0  0  0  0  0  0  0  0  0
    6.8524   -3.9422    2.3917 H   0  0  0  0  0  0  0  0  0  0  0  0
    5.4998   -3.3157    1.3859 H   0  0  0  0  0  0  0  0  0  0  0  0
    7.1792   -2.8610    0.9746 H   0  0  0  0  0  0  0  0  0  0  0  0
    7.2291   -3.9356   -1.3696 H   0  0  0  0  0  0  0  0  0  0  0  0
   -0.1975    5.7029    1.4734 H   0  0  0  0  0  0  0  0  0  0  0  0
   -1.9850    7.5345    0.7371 H   0  0  0  0  0  0  0  0  0  0  0  0
   -2.5822    5.3042    2.7670 H   0  0  0  0  0  0  0  0  0  0  0  0
   -1.7827    6.8812    3.0428 H   0  0  0  0  0  0  0  0  0  0  0  0
   -3.5230    6.8531    2.6177 H   0  0  0  0  0  0  0  0  0  0  0  0
   -4.3831    4.7624    1.3919 H   0  0  0  0  0  0  0  0  0  0  0  0
   -5.5278    4.9954   -1.2817 H   0  0  0  0  0  0  0  0  0  0  0  0
   -7.2483    6.8103   -0.7819 H   0  0  0  0  0  0  0  0  0  0  0  0
   -5.5593    7.4167   -0.9069 H   0  0  0  0  0  0  0  0  0  0  0  0
   -6.3145    7.2147    0.7120 H   0  0  0  0  0  0  0  0  0  0  0  0
   -6.7565    2.9835   -1.1212 H   0  0  0  0  0  0  0  0  0  0  0  0
   -8.9710    2.6262   -1.4273 H   0  0  0  0  0  0  0  0  0  0  0  0
  -10.5473    4.5141   -0.9998 H   0  0  0  0  0  0  0  0  0  0  0  0
   -8.9850    5.1097   -1.6617 H   0  0  0  0  0  0  0  0  0  0  0  0
   -9.3550    5.2902    0.0976 H   0  0  0  0  0  0  0  0  0  0  0  0
  -11.0643    1.4153    1.4251 H   0  0  0  0  0  0  0  0  0  0  0  0
  -11.2941    2.4005   -1.4057 H   0  0  0  0  0  0  0  0  0  0  0  0
  -13.0681    0.5852    0.3129 H   0  0  0  0  0  0  0  0  0  0  0  0
  -13.3918    1.0695   -1.3963 H   0  0  0  0  0  0  0  0  0  0  0  0
  -13.3087    2.3133   -0.1034 H   0  0  0  0  0  0  0  0  0  0  0  0
   -9.5023   -1.1068   -0.4608 H   0  0  0  0  0  0  0  0  0  0  0  0
  -12.5437   -1.4526   -0.6182 H   0  0  0  0  0  0  0  0  0  0  0  0
  -11.7825   -1.3737    1.7218 H   0  0  0  0  0  0  0  0  0  0  0  0
  -12.2999   -3.0427    1.2877 H   0  0  0  0  0  0  0  0  0  0  0  0
  -10.5425   -2.6510    1.3991 H   0  0  0  0  0  0  0  0  0  0  0  0
   -9.2215   -3.3346   -1.1700 H   0  0  0  0  0  0  0  0  0  0  0  0
   -9.5080   -5.8445   -1.4823 H   0  0  0  0  0  0  0  0  0  0  0  0
  -12.1185   -5.4006    0.0796 H   0  0  0  0  0  0  0  0  0  0  0  0
  -11.3618   -6.9852   -0.3207 H   0  0  0  0  0  0  0  0  0  0  0  0
  -11.9442   -5.9376   -1.6414 H   0  0  0  0  0  0  0  0  0  0  0  0
   -7.6816   -4.5801    1.6958 H   0  0  0  0  0  0  0  0  0  0  0  0
   -7.4025   -5.3030   -1.2598 H   0  0  0  0  0  0  0  0  0  0  0  0
   -5.9158   -5.9648    2.1935 H   0  0  0  0  0  0  0  0  0  0  0  0
   -4.9511   -7.3404    1.5662 H   0  0  0  0  0  0  0  0  0  0  0  0
   -6.7696   -2.9961   -0.7270 H   0  0  0  0  0  0  0  0  0  0  0  0
   -5.4283   -3.9500   -1.3672 H   0  0  0  0  0  0  0  0  0  0  0  0
   -3.5874   -4.7418   -0.3592 H   0  0  0  0  0  0  0  0  0  0  0  0
   -3.3181   -4.8657    1.3976 H   0  0  0  0  0  0  0  0  0  0  0  0
  1  2  1  0
  2  3  2  0
  2  4  1  0
  4  5  1  0
  5  6  1  0
  6  7  1  0
  7  8  1  0
  8  9  1  0
  9 10  1  0
 10 11  2  0
 11 12  1  0
 12 13  2  0
 13 14  1  0
 13 15  1  0
 15 16  1  0
 16 17  1  0
 17 18  1  0
 18 19  1  0
 19 20  1  0
 20 21  2  0
 20 22  1  0
 22 23  1  0
 22 24  1  0
 24 25  1  0
 25 26  2  0
 25 27  1  0
 27 28  1  0
 27 29  1  0
 29 30  1  0
 30 31  2  0
 30 32  1  0
 32 33  1  0
 32 34  1  0
 34 35  1  0
 35 36  2  0
 35 37  1  0
 37 38  1  0
 37 39  1  0
 39 40  1  0
 40 41  2  0
 40 42  1  0
 42 43  1  0
 42 44  1  0
 44 45  1  0
 45 46  2  0
 45 47  1  0
 47 48  1  0
 47 49  1  0
 49 50  1  0
 50 51  2  0
 50 52  1  0
 52 53  1  0
 52 54  1  0
 54 55  1  0
 55 56  2  0
 18 57  1  0
 57 58  2  0
 57 59  1  0
 59 60  1  0
 60 61  1  0
 60 62  1  0
 62 63  2  0
 62 64  1  0
 64 65  1  0
 65 66  1  0
 65 67  1  0
 67 68  2  0
 67 69  1  0
 69 70  1  0
 70 71  1  0
 70 72  1  0
 72 73  2  0
 72 74  1  0
 74 75  1  0
 75 76  1  0
 75 77  1  0
 77 78  2  0
 77 79  1  0
 79 80  1  0
 80 81  1  0
 80 82  1  0
 82 83  2  0
 82 84  1  0
 84 85  1  0
 85 86  1  0
 85 87  1  0
 87 88  2  0
 87 89  1  0
 89 90  1  0
 90 91  1  0
 91 92  1  0
 91 93  2  0
 90 94  1  0
 94 95  1  0
 95 96  1  0
 55  5  1  0
 14  9  2  0
 96 11  1  0
  1 97  1  0
  1 98  1  0
  1 99  1  0
  4100  1  0
  5101  1  6
  6102  1  0
  6103  1  0
  8104  1  0
  8105  1  0
 10106  1  0
 12107  1  0
 14108  1  0
 15109  1  0
 15110  1  0
 17111  1  0
 17112  1  0
 18113  1  6
 19114  1  0
 22115  1  1
 23116  1  0
 23117  1  0
 23118  1  0
 24119  1  0
 27120  1  6
 28121  1  0
 28122  1  0
 28123  1  0
 29124  1  0
 32125  1  6
 33126  1  0
 33127  1  0
 33128  1  0
 34129  1  0
 37130  1  6
 38131  1  0
 38132  1  0
 38133  1  0
 39134  1  0
 42135  1  6
 43136  1  0
 43137  1  0
 43138  1  0
 44139  1  0
 47140  1  6
 48141  1  0
 48142  1  0
 48143  1  0
 49144  1  0
 52145  1  1
 53146  1  0
 53147  1  0
 53148  1  0
 54149  1  0
 59150  1  0
 60151  1  6
 61152  1  0
 61153  1  0
 61154  1  0
 64155  1  0
 65156  1  6
 66157  1  0
 66158  1  0
 66159  1  0
 69160  1  0
 70161  1  6
 71162  1  0
 71163  1  0
 71164  1  0
 74165  1  0
 75166  1  6
 76167  1  0
 76168  1  0
 76169  1  0
 79170  1  0
 80171  1  6
 81172  1  0
 81173  1  0
 81174  1  0
 84175  1  0
 85176  1  6
 86177  1  0
 86178  1  0
 86179  1  0
 89180  1  0
 90181  1  6
 92182  1  0
 92183  1  0
 94184  1  0
 94185  1  0
 96186  1  0
 96187  1  0
M  END
