
     RDKit          3D

167169  0  0  0  0  0  0  0  0999 V2000
    2.7894    7.4085    2.3548 C   0  0  0  0  0  0  0  0  0  0  0  0
    2.6328    5.9963    1.8688 C   0  0  0  0  0  0  0  0  0  0  0  0
    2.7525    5.0534    2.6957 O   0  0  0  0  0  0  0  0  0  0  0  0
    2.3669    5.6880    0.4902 N   0  0  0  0  0  0  0  0  0  0  0  0
    2.1868    6.6933   -0.5609 C   0  0  2  0  0  0  0  0  0  0  0  0
    0.7005    7.0877   -0.6967 C   0  0  0  0  0  0  0  0  0  0  0  0
   -0.4205    5.6630   -0.9934 S   0  0  0  0  0  0  0  0  0  0  0  0
   -1.0120    5.5051    0.7274 C   0  0  0  0  0  0  0  0  0  0  0  0
   -1.9608    4.3460    0.8548 C   0  0  0  0  0  0  0  0  0  0  0  0
   -3.2631    4.5451    1.3462 C   0  0  0  0  0  0  0  0  0  0  0  0
   -4.1379    3.4584    1.4967 C   0  0  0  0  0  0  0  0  0  0  0  0
   -3.7058    2.1713    1.1528 C   0  0  0  0  0  0  0  0  0  0  0  0
   -2.4018    1.9558    0.6760 C   0  0  0  0  0  0  0  0  0  0  0  0
   -1.5354    3.0492    0.5180 C   0  0  0  0  0  0  0  0  0  0  0  0
   -1.9615    0.5690    0.2928 C   0  0  0  0  0  0  0  0  0  0  0  0
   -2.2152   -0.5863    1.6890 S   0  0  0  0  0  0  0  0  0  0  0  0
   -1.6320   -2.1073    0.8462 C   0  0  0  0  0  0  0  0  0  0  0  0
   -2.6960   -2.7120   -0.0887 C   0  0  1  0  0  0  0  0  0  0  0  0
   -2.1540   -3.8243   -0.8781 N   0  0  0  0  0  0  0  0  0  0  0  0
   -1.9144   -5.1799   -0.4465 C   0  0  0  0  0  0  0  0  0  0  0  0
   -1.8800   -6.0845   -1.3250 O   0  0  0  0  0  0  0  0  0  0  0  0
   -1.6568   -5.5527    1.0040 C   0  0  1  0  0  0  0  0  0  0  0  0
   -1.9842   -7.0258    1.2889 C   0  0  0  0  0  0  0  0  0  0  0  0
   -0.2837   -5.2312    1.4201 N   0  0  0  0  0  0  0  0  0  0  0  0
    0.8701   -6.0226    1.0924 C   0  0  0  0  0  0  0  0  0  0  0  0
    1.5040   -6.5777    2.0301 O   0  0  0  0  0  0  0  0  0  0  0  0
    1.3155   -6.2250   -0.3398 C   0  0  1  0  0  0  0  0  0  0  0  0
    1.5588   -4.8982   -1.0659 C   0  0  0  0  0  0  0  0  0  0  0  0
    2.4892   -7.1089   -0.4288 N   0  0  0  0  0  0  0  0  0  0  0  0
    3.8695   -6.7331   -0.2604 C   0  0  0  0  0  0  0  0  0  0  0  0
    4.7343   -7.3307   -0.9594 O   0  0  0  0  0  0  0  0  0  0  0  0
    4.3319   -5.7508    0.8011 C   0  0  1  0  0  0  0  0  0  0  0  0
    4.8716   -6.4841    2.0348 C   0  0  0  0  0  0  0  0  0  0  0  0
    5.3228   -4.7974    0.2673 N   0  0  0  0  0  0  0  0  0  0  0  0
    6.6973   -5.1168   -0.0412 C   0  0  0  0  0  0  0  0  0  0  0  0
    7.0681   -6.3175   -0.1296 O   0  0  0  0  0  0  0  0  0  0  0  0
    7.6941   -4.0120   -0.3049 C   0  0  1  0  0  0  0  0  0  0  0  0
    9.0356   -4.3124    0.3752 C   0  0  0  0  0  0  0  0  0  0  0  0
    7.8857   -3.8528   -1.7518 N   0  0  0  0  0  0  0  0  0  0  0  0
    8.2158   -2.6182   -2.4124 C   0  0  0  0  0  0  0  0  0  0  0  0
    8.2931   -2.6182   -3.6731 O   0  0  0  0  0  0  0  0  0  0  0  0
    8.4110   -1.3158   -1.6598 C   0  0  1  0  0  0  0  0  0  0  0  0
    9.3408   -0.3589   -2.4119 C   0  0  0  0  0  0  0  0  0  0  0  0
    7.1139   -0.6762   -1.4387 N   0  0  0  0  0  0  0  0  0  0  0  0
    6.5252   -0.4999   -0.1413 C   0  0  0  0  0  0  0  0  0  0  0  0
    5.3454   -0.8980    0.0495 O   0  0  0  0  0  0  0  0  0  0  0  0
    7.2261    0.2313    0.9822 C   0  0  1  0  0  0  0  0  0  0  0  0
    8.0523   -0.7134    1.8650 C   0  0  0  0  0  0  0  0  0  0  0  0
    8.0464    1.3391    0.4796 N   0  0  0  0  0  0  0  0  0  0  0  0
    7.5504    2.4673   -0.2737 C   0  0  0  0  0  0  0  0  0  0  0  0
    8.3789    3.1412   -0.9443 O   0  0  0  0  0  0  0  0  0  0  0  0
    6.0748    2.8577   -0.3094 C   0  0  1  0  0  0  0  0  0  0  0  0
    5.4976    3.1517    1.0883 C   0  0  0  0  0  0  0  0  0  0  0  0
    5.8522    4.0165   -1.1893 N   0  0  0  0  0  0  0  0  0  0  0  0
    6.1915    5.3640   -0.8039 C   0  0  0  0  0  0  0  0  0  0  0  0
    7.2478    5.5750   -0.1472 O   0  0  0  0  0  0  0  0  0  0  0  0
    5.2275    6.5083   -1.0368 C   0  0  1  0  0  0  0  0  0  0  0  0
    5.9653    7.7860   -1.4556 C   0  0  0  0  0  0  0  0  0  0  0  0
    4.2269    6.1672   -2.0529 N   0  0  0  0  0  0  0  0  0  0  0  0
    2.8047    6.1975   -1.8523 C   0  0  0  0  0  0  0  0  0  0  0  0
    2.0620    5.7492   -2.7745 O   0  0  0  0  0  0  0  0  0  0  0  0
   -3.9924   -3.0894    0.5932 C   0  0  0  0  0  0  0  0  0  0  0  0
   -4.0772   -3.1532    1.8475 O   0  0  0  0  0  0  0  0  0  0  0  0
   -5.1508   -3.3539   -0.2055 N   0  0  0  0  0  0  0  0  0  0  0  0
   -6.2540   -2.3987   -0.3692 C   0  0  2  0  0  0  0  0  0  0  0  0
   -5.7518   -0.9510   -0.4438 C   0  0  0  0  0  0  0  0  0  0  0  0
   -7.2574   -2.5413    0.7544 C   0  0  0  0  0  0  0  0  0  0  0  0
   -6.8390   -2.4711    1.9397 O   0  0  0  0  0  0  0  0  0  0  0  0
   -8.6738   -2.7141    0.5442 N   0  0  0  0  0  0  0  0  0  0  0  0
   -9.3736   -2.9006   -0.7353 C   0  0  2  0  0  0  0  0  0  0  0  0
   -9.0719   -4.2940   -1.3116 C   0  0  0  0  0  0  0  0  0  0  0  0
   -9.1072   -1.7587   -1.7006 C   0  0  0  0  0  0  0  0  0  0  0  0
   -8.6843   -2.0223   -2.8561 O   0  0  0  0  0  0  0  0  0  0  0  0
   -9.3144   -0.3777   -1.3476 N   0  0  0  0  0  0  0  0  0  0  0  0
  -10.0979    0.0911   -0.1939 C   0  0  2  0  0  0  0  0  0  0  0  0
  -11.1688    1.0913   -0.6357 C   0  0  0  0  0  0  0  0  0  0  0  0
   -9.2039    0.6260    0.9106 C   0  0  0  0  0  0  0  0  0  0  0  0
   -9.1095   -0.0583    1.9647 O   0  0  0  0  0  0  0  0  0  0  0  0
   -8.5182    1.8956    0.8779 N   0  0  0  0  0  0  0  0  0  0  0  0
   -8.3295    2.7783   -0.2802 C   0  0  1  0  0  0  0  0  0  0  0  0
   -9.3482    3.8940   -0.2743 C   0  0  0  0  0  0  0  0  0  0  0  0
   -9.5743    4.6659   -1.4554 N   0  0  0  0  0  0  0  0  0  0  0  0
   -9.9938    4.1647    0.7750 O   0  0  0  0  0  0  0  0  0  0  0  0
   -6.8879    3.3269   -0.3146 C   0  0  0  0  0  0  0  0  0  0  0  0
   -6.5761    4.6335    0.9391 S   0  0  0  0  0  0  0  0  0  0  0  0
   -5.5163    3.6621    2.0698 C   0  0  0  0  0  0  0  0  0  0  0  0
    3.6426    7.8957    1.8443 H   0  0  0  0  0  0  0  0  0  0  0  0
    1.8589    7.9769    2.1529 H   0  0  0  0  0  0  0  0  0  0  0  0
    2.9895    7.4238    3.4467 H   0  0  0  0  0  0  0  0  0  0  0  0
    2.2242    4.6793    0.2397 H   0  0  0  0  0  0  0  0  0  0  0  0
    2.7169    7.6345   -0.2990 H   0  0  0  0  0  0  0  0  0  0  0  0
    0.5867    7.7953   -1.5451 H   0  0  0  0  0  0  0  0  0  0  0  0
    0.3801    7.6468    0.2113 H   0  0  0  0  0  0  0  0  0  0  0  0
   -1.5160    6.4510    1.0217 H   0  0  0  0  0  0  0  0  0  0  0  0
   -0.1594    5.3372    1.4139 H   0  0  0  0  0  0  0  0  0  0  0  0
   -3.5906    5.5380    1.6295 H   0  0  0  0  0  0  0  0  0  0  0  0
   -4.3803    1.3342    1.2628 H   0  0  0  0  0  0  0  0  0  0  0  0
   -0.5348    2.8950    0.1338 H   0  0  0  0  0  0  0  0  0  0  0  0
   -2.5561    0.2547   -0.5879 H   0  0  0  0  0  0  0  0  0  0  0  0
   -0.8892    0.5597    0.0057 H   0  0  0  0  0  0  0  0  0  0  0  0
   -0.7039   -1.8899    0.2778 H   0  0  0  0  0  0  0  0  0  0  0  0
   -1.3737   -2.8230    1.6414 H   0  0  0  0  0  0  0  0  0  0  0  0
   -2.9607   -1.9132   -0.8074 H   0  0  0  0  0  0  0  0  0  0  0  0
   -2.0829   -3.6605   -1.9071 H   0  0  0  0  0  0  0  0  0  0  0  0
   -2.3516   -4.9749    1.6353 H   0  0  0  0  0  0  0  0  0  0  0  0
   -3.0491   -7.2383    1.0396 H   0  0  0  0  0  0  0  0  0  0  0  0
   -1.3358   -7.7002    0.6902 H   0  0  0  0  0  0  0  0  0  0  0  0
   -1.8248   -7.2449    2.3641 H   0  0  0  0  0  0  0  0  0  0  0  0
   -0.1844   -4.6485    2.2812 H   0  0  0  0  0  0  0  0  0  0  0  0
    0.4876   -6.7353   -0.8658 H   0  0  0  0  0  0  0  0  0  0  0  0
    1.9153   -5.1020   -2.0978 H   0  0  0  0  0  0  0  0  0  0  0  0
    2.3093   -4.2708   -0.5477 H   0  0  0  0  0  0  0  0  0  0  0  0
    0.6206   -4.3161   -1.1432 H   0  0  0  0  0  0  0  0  0  0  0  0
    2.3122   -8.0666   -0.8170 H   0  0  0  0  0  0  0  0  0  0  0  0
    3.4651   -5.1594    1.1576 H   0  0  0  0  0  0  0  0  0  0  0  0
    4.0587   -7.0555    2.5334 H   0  0  0  0  0  0  0  0  0  0  0  0
    5.2701   -5.7465    2.7657 H   0  0  0  0  0  0  0  0  0  0  0  0
    5.6788   -7.2012    1.7672 H   0  0  0  0  0  0  0  0  0  0  0  0
    5.0457   -3.7919    0.2498 H   0  0  0  0  0  0  0  0  0  0  0  0
    7.2901   -3.0774    0.1276 H   0  0  0  0  0  0  0  0  0  0  0  0
    9.7527   -3.4860    0.2015 H   0  0  0  0  0  0  0  0  0  0  0  0
    8.8943   -4.4228    1.4702 H   0  0  0  0  0  0  0  0  0  0  0  0
    9.4820   -5.2458   -0.0272 H   0  0  0  0  0  0  0  0  0  0  0  0
    7.8400   -4.7120   -2.3478 H   0  0  0  0  0  0  0  0  0  0  0  0
    8.9012   -1.5412   -0.6980 H   0  0  0  0  0  0  0  0  0  0  0  0
    9.5082    0.5625   -1.8167 H   0  0  0  0  0  0  0  0  0  0  0  0
    8.9082   -0.0689   -3.3963 H   0  0  0  0  0  0  0  0  0  0  0  0
   10.3273   -0.8433   -2.5842 H   0  0  0  0  0  0  0  0  0  0  0  0
    6.4883   -0.5486   -2.2698 H   0  0  0  0  0  0  0  0  0  0  0  0
    6.4547    0.6422    1.6600 H   0  0  0  0  0  0  0  0  0  0  0  0
    7.4705   -1.6235    2.1212 H   0  0  0  0  0  0  0  0  0  0  0  0
    9.0105   -1.0071    1.3867 H   0  0  0  0  0  0  0  0  0  0  0  0
    8.3136   -0.1960    2.8163 H   0  0  0  0  0  0  0  0  0  0  0  0
    9.0838    1.3095    0.6353 H   0  0  0  0  0  0  0  0  0  0  0  0
    5.5126    1.9980   -0.7362 H   0  0  0  0  0  0  0  0  0  0  0  0
    6.2775    3.5447    1.7762 H   0  0  0  0  0  0  0  0  0  0  0  0
    4.6805    3.8982    1.0220 H   0  0  0  0  0  0  0  0  0  0  0  0
    5.0349    2.2484    1.5330 H   0  0  0  0  0  0  0  0  0  0  0  0
    5.2936    3.8596   -2.0577 H   0  0  0  0  0  0  0  0  0  0  0  0
    4.7512    6.7058   -0.0540 H   0  0  0  0  0  0  0  0  0  0  0  0
    6.6720    8.1071   -0.6632 H   0  0  0  0  0  0  0  0  0  0  0  0
    6.5217    7.6277   -2.4058 H   0  0  0  0  0  0  0  0  0  0  0  0
    5.2267    8.6036   -1.6119 H   0  0  0  0  0  0  0  0  0  0  0  0
    4.5738    5.9618   -3.0214 H   0  0  0  0  0  0  0  0  0  0  0  0
   -5.2901   -4.3349   -0.5437 H   0  0  0  0  0  0  0  0  0  0  0  0
   -6.7159   -2.6113   -1.3465 H   0  0  0  0  0  0  0  0  0  0  0  0
   -5.0465   -0.8315   -1.2942 H   0  0  0  0  0  0  0  0  0  0  0  0
   -5.2401   -0.6674    0.5003 H   0  0  0  0  0  0  0  0  0  0  0  0
   -6.6033   -0.2556   -0.6048 H   0  0  0  0  0  0  0  0  0  0  0  0
   -9.2739   -2.7232    1.4025 H   0  0  0  0  0  0  0  0  0  0  0  0
  -10.4671   -2.8916   -0.5336 H   0  0  0  0  0  0  0  0  0  0  0  0
   -9.4152   -5.0691   -0.5939 H   0  0  0  0  0  0  0  0  0  0  0  0
   -7.9903   -4.4396   -1.4800 H   0  0  0  0  0  0  0  0  0  0  0  0
   -9.6161   -4.4403   -2.2684 H   0  0  0  0  0  0  0  0  0  0  0  0
   -9.0380    0.3135   -2.0765 H   0  0  0  0  0  0  0  0  0  0  0  0
  -10.6629   -0.7616    0.2342 H   0  0  0  0  0  0  0  0  0  0  0  0
  -10.7644    1.8382   -1.3502 H   0  0  0  0  0  0  0  0  0  0  0  0
  -11.9920    0.5517   -1.1594 H   0  0  0  0  0  0  0  0  0  0  0  0
  -11.6024    1.6215    0.2434 H   0  0  0  0  0  0  0  0  0  0  0  0
   -8.1986    2.2625    1.8023 H   0  0  0  0  0  0  0  0  0  0  0  0
   -8.4565    2.2000   -1.2067 H   0  0  0  0  0  0  0  0  0  0  0  0
  -10.2552    5.4620   -1.4320 H   0  0  0  0  0  0  0  0  0  0  0  0
   -9.0495    4.4699   -2.3390 H   0  0  0  0  0  0  0  0  0  0  0  0
   -6.1695    2.4872   -0.2145 H   0  0  0  0  0  0  0  0  0  0  0  0
   -6.7035    3.7815   -1.3113 H   0  0  0  0  0  0  0  0  0  0  0  0
   -5.4270    4.2232    3.0256 H   0  0  0  0  0  0  0  0  0  0  0  0
   -6.0006    2.6900    2.3067 H   0  0  0  0  0  0  0  0  0  0  0  0
  1  2  1  0
  2  3  2  0
  2  4  1  0
  4  5  1  0
  5  6  1  0
  6  7  1  0
  7  8  1  0
  8  9  1  0
  9 10  2  0
 10 11  1  0
 11 12  2  0
 12 13  1  0
 13 14  2  0
 13 15  1  0
 15 16  1  0
 16 17  1  0
 17 18  1  0
 18 19  1  0
 19 20  1  0
 20 21  2  0
 20 22  1  0
 22 23  1  0
 22 24  1  0
 24 25  1  0
 25 26  2  0
 25 27  1  0
 27 28  1  0
 27 29  1  0
 29 30  1  0
 30 31  2  0
 30 32  1  0
 32 33  1  0
 32 34  1  0
 34 35  1  0
 35 36  2  0
 35 37  1  0
 37 38  1  0
 37 39  1  0
 39 40  1  0
 40 41  2  0
 40 42  1  0
 42 43  1  0
 42 44  1  0
 44 45  1  0
 45 46  2  0
 45 47  1  0
 47 48  1  0
 47 49  1  0
 49 50  1  0
 50 51  2  0
 50 52  1  0
 52 53  1  0
 52 54  1  0
 54 55  1  0
 55 56  2  0
 55 57  1  0
 57 58  1  0
 57 59  1  0
 59 60  1  0
 60 61  2  0
 18 62  1  0
 62 63  2  0
 62 64  1  0
 64 65  1  0
 65 66  1  0
 65 67  1  0
 67 68  2  0
 67 69  1  0
 69 70  1  0
 70 71  1  0
 70 72  1  0
 72 73  2  0
 72 74  1  0
 74 75  1  0
 75 76  1  0
 75 77  1  0
 77 78  2  0
 77 79  1  0
 79 80  1  0
 80 81  1  0
 81 82  1  0
 81 83  2  0
 80 84  1  0
 84 85  1  0
 85 86  1  0
 60  5  1  0
 14  9  1  0
 86 11  1  0
  1 87  1  0
  1 88  1  0
  1 89  1  0
  4 90  1  0
  5 91  1  1
  6 92  1  0
  6 93  1  0
  8 94  1  0
  8 95  1  0
 10 96  1  0
 12 97  1  0
 14 98  1  0
 15 99  1  0
 15100  1  0
 17101  1  0
 17102  1  0
 18103  1  6
 19104  1  0
 22105  1  1
 23106  1  0
 23107  1  0
 23108  1  0
 24109  1  0
 27110  1  6
 28111  1  0
 28112  1  0
 28113  1  0
 29114  1  0
 32115  1  1
 33116  1  0
 33117  1  0
 33118  1  0
 34119  1  0
 37120  1  1
 38121  1  0
 38122  1  0
 38123  1  0
 39124  1  0
 42125  1  1
 43126  1  0
 43127  1  0
 43128  1  0
 44129  1  0
 47130  1  1
 48131  1  0
 48132  1  0
 48133  1  0
 49134  1  0
 52135  1  6
 53136  1  0
 53137  1  0
 53138  1  0
 54139  1  0
 57140  1  1
 58141  1  0
 58142  1  0
 58143  1  0
 59144  1  0
 64145  1  0
 65146  1  6
 66147  1  0
 66148  1  0
 66149  1  0
 69150  1  0
 70151  1  1
 71152  1  0
 71153  1  0
 71154  1  0
 74155  1  0
 75156  1  1
 76157  1  0
 76158  1  0
 76159  1  0
 79160  1  0
 80161  1  6
 82162  1  0
 82163  1  0
 84164  1  0
 84165  1  0
 86166  1  0
 86167  1  0
M  END
