
     RDKit          3D

217219  0  0  0  0  0  0  0  0999 V2000
   -6.7333    7.4654   -1.3662 C   0  0  0  0  0  0  0  0  0  0  0  0
   -6.9633    7.2836    0.1005 C   0  0  0  0  0  0  0  0  0  0  0  0
   -7.4134    8.2522    0.7698 O   0  0  0  0  0  0  0  0  0  0  0  0
   -6.6803    6.0427    0.7674 N   0  0  0  0  0  0  0  0  0  0  0  0
   -6.2126    4.8223    0.0912 C   0  0  1  0  0  0  0  0  0  0  0  0
   -4.9942    4.2471    0.8297 C   0  0  0  0  0  0  0  0  0  0  0  0
   -3.6168    5.4571    0.8461 S   0  0  0  0  0  0  0  0  0  0  0  0
   -2.9490    5.0496   -0.8056 C   0  0  0  0  0  0  0  0  0  0  0  0
   -1.9382    3.9462   -0.6926 C   0  0  0  0  0  0  0  0  0  0  0  0
   -0.7017    4.2049   -0.0958 C   0  0  0  0  0  0  0  0  0  0  0  0
    0.2434    3.1840    0.0528 C   0  0  0  0  0  0  0  0  0  0  0  0
   -0.0530    1.8909   -0.4133 C   0  0  0  0  0  0  0  0  0  0  0  0
   -1.2864    1.6127   -1.0293 C   0  0  0  0  0  0  0  0  0  0  0  0
   -2.2210    2.6544   -1.1586 C   0  0  0  0  0  0  0  0  0  0  0  0
   -1.7010    0.2149   -1.4423 C   0  0  0  0  0  0  0  0  0  0  0  0
   -0.3143   -0.8733   -1.9458 S   0  0  0  0  0  0  0  0  0  0  0  0
    0.1291   -1.4955   -0.2786 C   0  0  0  0  0  0  0  0  0  0  0  0
    0.0387   -3.0270   -0.2062 C   0  0  2  0  0  0  0  0  0  0  0  0
   -1.3214   -3.4998   -0.5063 N   0  0  0  0  0  0  0  0  0  0  0  0
   -2.4137   -3.3892    0.4180 C   0  0  0  0  0  0  0  0  0  0  0  0
   -2.5963   -2.3241    1.0590 O   0  0  0  0  0  0  0  0  0  0  0  0
   -3.2874   -4.5864    0.6861 C   0  0  1  0  0  0  0  0  0  0  0  0
   -3.0825   -5.0522    2.1360 C   0  0  0  0  0  0  0  0  0  0  0  0
   -4.7005   -4.2711    0.4524 N   0  0  0  0  0  0  0  0  0  0  0  0
   -5.7044   -5.3009    0.4438 C   0  0  0  0  0  0  0  0  0  0  0  0
   -5.3666   -6.5067    0.2587 O   0  0  0  0  0  0  0  0  0  0  0  0
   -7.1467   -4.9804    0.7221 C   0  0  1  0  0  0  0  0  0  0  0  0
   -7.2827   -4.2894    2.0876 C   0  0  0  0  0  0  0  0  0  0  0  0
   -7.7047   -4.1260   -0.3300 N   0  0  0  0  0  0  0  0  0  0  0  0
   -9.0971   -4.0439   -0.6784 C   0  0  0  0  0  0  0  0  0  0  0  0
   -9.4809   -3.0164   -1.3023 O   0  0  0  0  0  0  0  0  0  0  0  0
  -10.0867   -5.1827   -0.4292 C   0  0  1  0  0  0  0  0  0  0  0  0
  -10.4642   -5.4158    1.0433 C   0  0  0  0  0  0  0  0  0  0  0  0
  -11.3054   -5.0912   -1.2607 N   0  0  0  0  0  0  0  0  0  0  0  0
  -12.0770   -3.9128   -1.5734 C   0  0  0  0  0  0  0  0  0  0  0  0
  -12.2145   -3.5945   -2.7824 O   0  0  0  0  0  0  0  0  0  0  0  0
  -12.8097   -3.0800   -0.5365 C   0  0  1  0  0  0  0  0  0  0  0  0
  -13.6248   -3.9246    0.4438 C   0  0  0  0  0  0  0  0  0  0  0  0
  -11.8935   -2.1839    0.1744 N   0  0  0  0  0  0  0  0  0  0  0  0
  -12.3351   -0.9216    0.6766 C   0  0  0  0  0  0  0  0  0  0  0  0
  -12.5993   -0.8111    1.9026 O   0  0  0  0  0  0  0  0  0  0  0  0
  -12.3974    0.3087   -0.1983 C   0  0  1  0  0  0  0  0  0  0  0  0
  -12.1007    0.0393   -1.6757 C   0  0  0  0  0  0  0  0  0  0  0  0
  -13.7167    0.9301   -0.0590 N   0  0  0  0  0  0  0  0  0  0  0  0
  -13.9053    2.2317    0.5100 C   0  0  0  0  0  0  0  0  0  0  0  0
  -14.8713    2.4213    1.2920 O   0  0  0  0  0  0  0  0  0  0  0  0
  -12.9734    3.3713    0.1715 C   0  0  1  0  0  0  0  0  0  0  0  0
  -13.7832    4.5921   -0.2882 C   0  0  0  0  0  0  0  0  0  0  0  0
  -12.1643    3.7276    1.3411 N   0  0  0  0  0  0  0  0  0  0  0  0
  -10.8745    4.3527    1.2295 C   0  0  0  0  0  0  0  0  0  0  0  0
  -10.6090    5.3203    1.9973 O   0  0  0  0  0  0  0  0  0  0  0  0
   -9.8486    3.9040    0.2107 C   0  0  1  0  0  0  0  0  0  0  0  0
   -9.9212    4.8142   -1.0287 C   0  0  0  0  0  0  0  0  0  0  0  0
   -8.5025    3.9461    0.7942 N   0  0  0  0  0  0  0  0  0  0  0  0
   -7.3207    3.8101   -0.0026 C   0  0  0  0  0  0  0  0  0  0  0  0
   -7.2311    2.8591   -0.8272 O   0  0  0  0  0  0  0  0  0  0  0  0
    0.4863   -3.5456    1.1518 C   0  0  0  0  0  0  0  0  0  0  0  0
    0.0900   -2.9460    2.1862 O   0  0  0  0  0  0  0  0  0  0  0  0
    1.3079   -4.7197    1.3198 N   0  0  0  0  0  0  0  0  0  0  0  0
    2.0101   -5.4337    0.2451 C   0  0  2  0  0  0  0  0  0  0  0  0
    1.0390   -6.3568   -0.5026 C   0  0  0  0  0  0  0  0  0  0  0  0
    3.1490   -6.2401    0.8221 C   0  0  0  0  0  0  0  0  0  0  0  0
    2.8945   -7.2020    1.6000 O   0  0  0  0  0  0  0  0  0  0  0  0
    4.5177   -5.8652    0.6043 N   0  0  0  0  0  0  0  0  0  0  0  0
    5.2527   -6.0915   -0.6536 C   0  0  2  0  0  0  0  0  0  0  0  0
    4.6091   -5.3751   -1.8419 C   0  0  0  0  0  0  0  0  0  0  0  0
    5.3996   -7.5691   -0.9336 C   0  0  0  0  0  0  0  0  0  0  0  0
    4.3573   -8.2578   -1.1150 O   0  0  0  0  0  0  0  0  0  0  0  0
    6.6777   -8.2221   -1.0278 N   0  0  0  0  0  0  0  0  0  0  0  0
    7.9677   -7.6026   -0.6999 C   0  0  2  0  0  0  0  0  0  0  0  0
    9.1153   -8.5271   -1.1177 C   0  0  0  0  0  0  0  0  0  0  0  0
    8.0442   -7.3164    0.7810 C   0  0  0  0  0  0  0  0  0  0  0  0
    7.5516   -8.1434    1.5936 O   0  0  0  0  0  0  0  0  0  0  0  0
    8.6331   -6.1101    1.2959 N   0  0  0  0  0  0  0  0  0  0  0  0
    9.8856   -5.5549    0.7845 C   0  0  2  0  0  0  0  0  0  0  0  0
   11.0701   -6.3400    1.3614 C   0  0  0  0  0  0  0  0  0  0  0  0
   10.0036   -4.1003    1.1709 C   0  0  0  0  0  0  0  0  0  0  0  0
   10.0174   -3.7701    2.3908 O   0  0  0  0  0  0  0  0  0  0  0  0
   10.1022   -3.0839    0.1671 N   0  0  0  0  0  0  0  0  0  0  0  0
   11.3799   -2.5478   -0.3191 C   0  0  2  0  0  0  0  0  0  0  0  0
   11.9762   -3.4907   -1.3663 C   0  0  0  0  0  0  0  0  0  0  0  0
   12.3681   -2.3090    0.8137 C   0  0  0  0  0  0  0  0  0  0  0  0
   12.8007   -3.3059    1.4508 O   0  0  0  0  0  0  0  0  0  0  0  0
   12.8513   -1.0036    1.1912 N   0  0  0  0  0  0  0  0  0  0  0  0
   12.5897    0.2476    0.4630 C   0  0  2  0  0  0  0  0  0  0  0  0
   13.4435    0.2816   -0.8092 C   0  0  0  0  0  0  0  0  0  0  0  0
   12.8985    1.4735    1.3155 C   0  0  0  0  0  0  0  0  0  0  0  0
   13.4409    1.3266    2.4440 O   0  0  0  0  0  0  0  0  0  0  0  0
   12.6662    2.8132    0.8516 N   0  0  0  0  0  0  0  0  0  0  0  0
   11.6363    3.2028   -0.1173 C   0  0  2  0  0  0  0  0  0  0  0  0
   12.2663    4.1007   -1.1881 C   0  0  0  0  0  0  0  0  0  0  0  0
   10.5027    3.8809    0.6163 C   0  0  0  0  0  0  0  0  0  0  0  0
    9.8760    3.2422    1.5040 O   0  0  0  0  0  0  0  0  0  0  0  0
   10.1236    5.2267    0.3226 N   0  0  0  0  0  0  0  0  0  0  0  0
    8.9931    5.5127   -0.5581 C   0  0  2  0  0  0  0  0  0  0  0  0
    9.3701    6.6579   -1.5070 C   0  0  0  0  0  0  0  0  0  0  0  0
    7.7631    5.8065    0.2739 C   0  0  0  0  0  0  0  0  0  0  0  0
    7.4749    5.0270    1.2235 O   0  0  0  0  0  0  0  0  0  0  0  0
    6.9198    6.9390    0.0141 N   0  0  0  0  0  0  0  0  0  0  0  0
    6.2189    7.6773    1.0717 C   0  0  2  0  0  0  0  0  0  0  0  0
    7.2315    8.2574    2.0686 C   0  0  0  0  0  0  0  0  0  0  0  0
    5.1593    6.8241    1.7474 C   0  0  0  0  0  0  0  0  0  0  0  0
    5.2536    6.5819    2.9783 O   0  0  0  0  0  0  0  0  0  0  0  0
    3.9912    6.3486    1.0458 N   0  0  0  0  0  0  0  0  0  0  0  0
    3.8310    6.3316   -0.4167 C   0  0  2  0  0  0  0  0  0  0  0  0
    3.6918    7.7365   -0.9407 C   0  0  0  0  0  0  0  0  0  0  0  0
    2.7551    8.6477   -0.3641 N   0  0  0  0  0  0  0  0  0  0  0  0
    4.4171    8.1180   -1.8988 O   0  0  0  0  0  0  0  0  0  0  0  0
    2.6015    5.5079   -0.8246 C   0  0  0  0  0  0  0  0  0  0  0  0
    2.8872    3.7218   -0.5107 S   0  0  0  0  0  0  0  0  0  0  0  0
    1.5599    3.4566    0.7226 C   0  0  0  0  0  0  0  0  0  0  0  0
   -7.0028    8.5042   -1.6674 H   0  0  0  0  0  0  0  0  0  0  0  0
   -5.6602    7.3057   -1.6035 H   0  0  0  0  0  0  0  0  0  0  0  0
   -7.3630    6.7522   -1.9411 H   0  0  0  0  0  0  0  0  0  0  0  0
   -6.8760    5.9886    1.7951 H   0  0  0  0  0  0  0  0  0  0  0  0
   -5.9077    5.0544   -0.9484 H   0  0  0  0  0  0  0  0  0  0  0  0
   -4.6656    3.2993    0.3595 H   0  0  0  0  0  0  0  0  0  0  0  0
   -5.2756    4.0194    1.8809 H   0  0  0  0  0  0  0  0  0  0  0  0
   -3.7603    4.7709   -1.5073 H   0  0  0  0  0  0  0  0  0  0  0  0
   -2.4634    5.9581   -1.2212 H   0  0  0  0  0  0  0  0  0  0  0  0
   -0.4818    5.1960    0.2721 H   0  0  0  0  0  0  0  0  0  0  0  0
    0.6845    1.1142   -0.2783 H   0  0  0  0  0  0  0  0  0  0  0  0
   -3.1847    2.4573   -1.6228 H   0  0  0  0  0  0  0  0  0  0  0  0
   -2.3683    0.2915   -2.3263 H   0  0  0  0  0  0  0  0  0  0  0  0
   -2.3031   -0.2544   -0.6377 H   0  0  0  0  0  0  0  0  0  0  0  0
   -0.4807   -1.0255    0.5177 H   0  0  0  0  0  0  0  0  0  0  0  0
    1.1837   -1.2047   -0.0877 H   0  0  0  0  0  0  0  0  0  0  0  0
    0.7153   -3.4142   -0.9939 H   0  0  0  0  0  0  0  0  0  0  0  0
   -1.4278   -4.1819   -1.2907 H   0  0  0  0  0  0  0  0  0  0  0  0
   -2.9810   -5.4134    0.0092 H   0  0  0  0  0  0  0  0  0  0  0  0
   -2.0017   -5.2302    2.3358 H   0  0  0  0  0  0  0  0  0  0  0  0
   -3.4551   -4.2829    2.8476 H   0  0  0  0  0  0  0  0  0  0  0  0
   -3.6275   -6.0060    2.3167 H   0  0  0  0  0  0  0  0  0  0  0  0
   -5.0038   -3.2702    0.4298 H   0  0  0  0  0  0  0  0  0  0  0  0
   -7.6853   -5.9421    0.7385 H   0  0  0  0  0  0  0  0  0  0  0  0
   -6.8785   -4.9536    2.8802 H   0  0  0  0  0  0  0  0  0  0  0  0
   -6.7339   -3.3254    2.1040 H   0  0  0  0  0  0  0  0  0  0  0  0
   -8.3465   -4.0819    2.3156 H   0  0  0  0  0  0  0  0  0  0  0  0
   -7.0698   -3.4210   -0.7800 H   0  0  0  0  0  0  0  0  0  0  0  0
   -9.5580   -6.1126   -0.7499 H   0  0  0  0  0  0  0  0  0  0  0  0
  -10.6832   -4.4744    1.5823 H   0  0  0  0  0  0  0  0  0  0  0  0
  -11.3488   -6.0861    1.0979 H   0  0  0  0  0  0  0  0  0  0  0  0
   -9.6656   -5.9466    1.5963 H   0  0  0  0  0  0  0  0  0  0  0  0
  -11.4570   -5.8940   -1.9156 H   0  0  0  0  0  0  0  0  0  0  0  0
  -13.5577   -2.4651   -1.0776 H   0  0  0  0  0  0  0  0  0  0  0  0
  -12.9787   -4.4703    1.1521 H   0  0  0  0  0  0  0  0  0  0  0  0
  -14.2586   -4.6518   -0.1066 H   0  0  0  0  0  0  0  0  0  0  0  0
  -14.2868   -3.2656    1.0407 H   0  0  0  0  0  0  0  0  0  0  0  0
  -11.0700   -2.5872    0.6610 H   0  0  0  0  0  0  0  0  0  0  0  0
  -11.6111    0.9963    0.1825 H   0  0  0  0  0  0  0  0  0  0  0  0
  -12.0257    1.0048   -2.2178 H   0  0  0  0  0  0  0  0  0  0  0  0
  -11.1324   -0.4959   -1.7844 H   0  0  0  0  0  0  0  0  0  0  0  0
  -12.9049   -0.5595   -2.1429 H   0  0  0  0  0  0  0  0  0  0  0  0
  -14.5615    0.3242   -0.1894 H   0  0  0  0  0  0  0  0  0  0  0  0
  -12.3266    3.0646   -0.6726 H   0  0  0  0  0  0  0  0  0  0  0  0
  -13.1021    5.3953   -0.6351 H   0  0  0  0  0  0  0  0  0  0  0  0
  -14.3976    4.9907    0.5505 H   0  0  0  0  0  0  0  0  0  0  0  0
  -14.4559    4.3144   -1.1293 H   0  0  0  0  0  0  0  0  0  0  0  0
  -12.6693    3.8512    2.2495 H   0  0  0  0  0  0  0  0  0  0  0  0
  -10.0688    2.8609   -0.0983 H   0  0  0  0  0  0  0  0  0  0  0  0
   -9.2758    4.4120   -1.8345 H   0  0  0  0  0  0  0  0  0  0  0  0
   -9.5915    5.8387   -0.7789 H   0  0  0  0  0  0  0  0  0  0  0  0
  -10.9529    4.8503   -1.4329 H   0  0  0  0  0  0  0  0  0  0  0  0
   -8.3773    4.1062    1.8233 H   0  0  0  0  0  0  0  0  0  0  0  0
    1.4787   -5.0178    2.3095 H   0  0  0  0  0  0  0  0  0  0  0  0
    2.4313   -4.6918   -0.4560 H   0  0  0  0  0  0  0  0  0  0  0  0
    0.4958   -7.0142    0.2106 H   0  0  0  0  0  0  0  0  0  0  0  0
    1.5933   -7.0016   -1.2164 H   0  0  0  0  0  0  0  0  0  0  0  0
    0.3021   -5.7710   -1.0796 H   0  0  0  0  0  0  0  0  0  0  0  0
    5.1073   -5.7923    1.4582 H   0  0  0  0  0  0  0  0  0  0  0  0
    6.2498   -5.6236   -0.5260 H   0  0  0  0  0  0  0  0  0  0  0  0
    5.2838   -5.4398   -2.7236 H   0  0  0  0  0  0  0  0  0  0  0  0
    4.4534   -4.2992   -1.6088 H   0  0  0  0  0  0  0  0  0  0  0  0
    3.6415   -5.8394   -2.1245 H   0  0  0  0  0  0  0  0  0  0  0  0
    6.6685   -9.2259   -1.3298 H   0  0  0  0  0  0  0  0  0  0  0  0
    8.0752   -6.6633   -1.2857 H   0  0  0  0  0  0  0  0  0  0  0  0
   10.0925   -8.0107   -1.0250 H   0  0  0  0  0  0  0  0  0  0  0  0
    8.9983   -8.8216   -2.1814 H   0  0  0  0  0  0  0  0  0  0  0  0
    9.1329   -9.4496   -0.4941 H   0  0  0  0  0  0  0  0  0  0  0  0
    8.3467   -5.8386    2.2666 H   0  0  0  0  0  0  0  0  0  0  0  0
    9.9144   -5.6253   -0.3230 H   0  0  0  0  0  0  0  0  0  0  0  0
   11.0131   -6.3630    2.4693 H   0  0  0  0  0  0  0  0  0  0  0  0
   11.0499   -7.3868    0.9952 H   0  0  0  0  0  0  0  0  0  0  0  0
   12.0343   -5.8822    1.0615 H   0  0  0  0  0  0  0  0  0  0  0  0
    9.2406   -2.8822   -0.3969 H   0  0  0  0  0  0  0  0  0  0  0  0
   11.1605   -1.5985   -0.8473 H   0  0  0  0  0  0  0  0  0  0  0  0
   11.2586   -3.6278   -2.2016 H   0  0  0  0  0  0  0  0  0  0  0  0
   12.2069   -4.4845   -0.9287 H   0  0  0  0  0  0  0  0  0  0  0  0
   12.9130   -3.0640   -1.7837 H   0  0  0  0  0  0  0  0  0  0  0  0
   13.5238   -0.9955    1.9901 H   0  0  0  0  0  0  0  0  0  0  0  0
   11.5135    0.2914    0.2157 H   0  0  0  0  0  0  0  0  0  0  0  0
   13.1327    1.1195   -1.4664 H   0  0  0  0  0  0  0  0  0  0  0  0
   14.5192    0.4024   -0.5543 H   0  0  0  0  0  0  0  0  0  0  0  0
   13.3304   -0.6549   -1.3902 H   0  0  0  0  0  0  0  0  0  0  0  0
   13.1457    3.5886    1.3684 H   0  0  0  0  0  0  0  0  0  0  0  0
   11.2165    2.3165   -0.6338 H   0  0  0  0  0  0  0  0  0  0  0  0
   11.5217    4.3293   -1.9749 H   0  0  0  0  0  0  0  0  0  0  0  0
   12.6381    5.0462   -0.7437 H   0  0  0  0  0  0  0  0  0  0  0  0
   13.1229    3.5773   -1.6627 H   0  0  0  0  0  0  0  0  0  0  0  0
   10.4420    5.9723    0.9867 H   0  0  0  0  0  0  0  0  0  0  0  0
    8.7818    4.6156   -1.1803 H   0  0  0  0  0  0  0  0  0  0  0  0
   10.3637    6.4677   -1.9644 H   0  0  0  0  0  0  0  0  0  0  0  0
    9.4156    7.6260   -0.9628 H   0  0  0  0  0  0  0  0  0  0  0  0
    8.6304    6.7270   -2.3288 H   0  0  0  0  0  0  0  0  0  0  0  0
    6.8838    7.3372   -0.9463 H   0  0  0  0  0  0  0  0  0  0  0  0
    5.7072    8.5522    0.6133 H   0  0  0  0  0  0  0  0  0  0  0  0
    7.9699    8.8855    1.5324 H   0  0  0  0  0  0  0  0  0  0  0  0
    7.7673    7.4490    2.6040 H   0  0  0  0  0  0  0  0  0  0  0  0
    6.7102    8.9011    2.8110 H   0  0  0  0  0  0  0  0  0  0  0  0
    3.2496    5.9010    1.6354 H   0  0  0  0  0  0  0  0  0  0  0  0
    4.7197    5.8525   -0.8814 H   0  0  0  0  0  0  0  0  0  0  0  0
    2.7263    9.6417   -0.6789 H   0  0  0  0  0  0  0  0  0  0  0  0
    2.1717    8.3713    0.4588 H   0  0  0  0  0  0  0  0  0  0  0  0
    2.4248    5.6228   -1.9168 H   0  0  0  0  0  0  0  0  0  0  0  0
    1.7024    5.8888   -0.3015 H   0  0  0  0  0  0  0  0  0  0  0  0
    1.8405    2.5809    1.3466 H   0  0  0  0  0  0  0  0  0  0  0  0
    1.4864    4.3218    1.4184 H   0  0  0  0  0  0  0  0  0  0  0  0
  1  2  1  0
  2  3  2  0
  2  4  1  0
  4  5  1  0
  5  6  1  0
  6  7  1  0
  7  8  1  0
  8  9  1  0
  9 10  1  0
 10 11  2  0
 11 12  1  0
 12 13  2  0
 13 14  1  0
 13 15  1  0
 15 16  1  0
 16 17  1  0
 17 18  1  0
 18 19  1  0
 19 20  1  0
 20 21  2  0
 20 22  1  0
 22 23  1  0
 22 24  1  0
 24 25  1  0
 25 26  2  0
 25 27  1  0
 27 28  1  0
 27 29  1  0
 29 30  1  0
 30 31  2  0
 30 32  1  0
 32 33  1  0
 32 34  1  0
 34 35  1  0
 35 36  2  0
 35 37  1  0
 37 38  1  0
 37 39  1  0
 39 40  1  0
 40 41  2  0
 40 42  1  0
 42 43  1  0
 42 44  1  0
 44 45  1  0
 45 46  2  0
 45 47  1  0
 47 48  1  0
 47 49  1  0
 49 50  1  0
 50 51  2  0
 50 52  1  0
 52 53  1  0
 52 54  1  0
 54 55  1  0
 55 56  2  0
 18 57  1  0
 57 58  2  0
 57 59  1  0
 59 60  1  0
 60 61  1  0
 60 62  1  0
 62 63  2  0
 62 64  1  0
 64 65  1  0
 65 66  1  0
 65 67  1  0
 67 68  2  0
 67 69  1  0
 69 70  1  0
 70 71  1  0
 70 72  1  0
 72 73  2  0
 72 74  1  0
 74 75  1  0
 75 76  1  0
 75 77  1  0
 77 78  2  0
 77 79  1  0
 79 80  1  0
 80 81  1  0
 80 82  1  0
 82 83  2  0
 82 84  1  0
 84 85  1  0
 85 86  1  0
 85 87  1  0
 87 88  2  0
 87 89  1  0
 89 90  1  0
 90 91  1  0
 90 92  1  0
 92 93  2  0
 92 94  1  0
 94 95  1  0
 95 96  1  0
 95 97  1  0
 97 98  2  0
 97 99  1  0
 99100  1  0
100101  1  0
100102  1  0
102103  2  0
102104  1  0
104105  1  0
105106  1  0
106107  1  0
106108  2  0
105109  1  0
109110  1  0
110111  1  0
 55  5  1  0
 14  9  2  0
111 11  1  0
  1112  1  0
  1113  1  0
  1114  1  0
  4115  1  0
  5116  1  6
  6117  1  0
  6118  1  0
  8119  1  0
  8120  1  0
 10121  1  0
 12122  1  0
 14123  1  0
 15124  1  0
 15125  1  0
 17126  1  0
 17127  1  0
 18128  1  6
 19129  1  0
 22130  1  6
 23131  1  0
 23132  1  0
 23133  1  0
 24134  1  0
 27135  1  1
 28136  1  0
 28137  1  0
 28138  1  0
 29139  1  0
 32140  1  6
 33141  1  0
 33142  1  0
 33143  1  0
 34144  1  0
 37145  1  6
 38146  1  0
 38147  1  0
 38148  1  0
 39149  1  0
 42150  1  1
 43151  1  0
 43152  1  0
 43153  1  0
 44154  1  0
 47155  1  6
 48156  1  0
 48157  1  0
 48158  1  0
 49159  1  0
 52160  1  6
 53161  1  0
 53162  1  0
 53163  1  0
 54164  1  0
 59165  1  0
 60166  1  6
 61167  1  0
 61168  1  0
 61169  1  0
 64170  1  0
 65171  1  1
 66172  1  0
 66173  1  0
 66174  1  0
 69175  1  0
 70176  1  6
 71177  1  0
 71178  1  0
 71179  1  0
 74180  1  0
 75181  1  6
 76182  1  0
 76183  1  0
 76184  1  0
 79185  1  0
 80186  1  6
 81187  1  0
 81188  1  0
 81189  1  0
 84190  1  0
 85191  1  6
 86192  1  0
 86193  1  0
 86194  1  0
 89195  1  0
 90196  1  6
 91197  1  0
 91198  1  0
 91199  1  0
 94200  1  0
 95201  1  6
 96202  1  0
 96203  1  0
 96204  1  0
 99205  1  0
100206  1  6
101207  1  0
101208  1  0
101209  1  0
104210  1  0
105211  1  6
107212  1  0
107213  1  0
109214  1  0
109215  1  0
111216  1  0
111217  1  0
M  END
