
     RDKit          3D

127129  0  0  0  0  0  0  0  0999 V2000
    9.6793   -1.2354    3.3629 C   0  0  0  0  0  0  0  0  0  0  0  0
    8.6110   -0.8406    2.3953 C   0  0  0  0  0  0  0  0  0  0  0  0
    7.6727   -0.0939    2.7770 O   0  0  0  0  0  0  0  0  0  0  0  0
    8.6754   -1.2972    1.0374 N   0  0  0  0  0  0  0  0  0  0  0  0
    7.6380   -0.9903    0.0477 C   0  0  2  0  0  0  0  0  0  0  0  0
    7.3465   -2.2286   -0.8352 C   0  0  0  0  0  0  0  0  0  0  0  0
    7.2741   -3.8331    0.0645 S   0  0  0  0  0  0  0  0  0  0  0  0
    6.0273   -3.4576    1.3527 C   0  0  0  0  0  0  0  0  0  0  0  0
    4.6195   -3.4650    0.8180 C   0  0  0  0  0  0  0  0  0  0  0  0
    3.7786   -4.5746    1.0263 C   0  0  0  0  0  0  0  0  0  0  0  0
    2.4316   -4.5357    0.6243 C   0  0  0  0  0  0  0  0  0  0  0  0
    1.9511   -3.4065   -0.0574 C   0  0  0  0  0  0  0  0  0  0  0  0
    2.7787   -2.2916   -0.2546 C   0  0  0  0  0  0  0  0  0  0  0  0
    4.0979   -2.3178    0.2111 C   0  0  0  0  0  0  0  0  0  0  0  0
    2.2454   -1.0453   -0.8985 C   0  0  0  0  0  0  0  0  0  0  0  0
    1.9676    0.2173    0.3867 S   0  0  0  0  0  0  0  0  0  0  0  0
    1.5543    1.5874   -0.7538 C   0  0  0  0  0  0  0  0  0  0  0  0
    2.4791    2.8220   -0.6304 C   0  0  2  0  0  0  0  0  0  0  0  0
    3.8091    2.5936   -1.2281 N   0  0  0  0  0  0  0  0  0  0  0  0
    4.8050    1.6773   -0.7284 C   0  0  0  0  0  0  0  0  0  0  0  0
    4.8627    1.4261    0.5033 O   0  0  0  0  0  0  0  0  0  0  0  0
    5.7827    0.9708   -1.6419 C   0  0  1  0  0  0  0  0  0  0  0  0
    5.6522    1.3440   -3.1223 C   0  0  0  0  0  0  0  0  0  0  0  0
    7.1581    1.2184   -1.2022 N   0  0  0  0  0  0  0  0  0  0  0  0
    8.0756    0.1881   -0.7941 C   0  0  0  0  0  0  0  0  0  0  0  0
    9.2926    0.3106   -1.0906 O   0  0  0  0  0  0  0  0  0  0  0  0
    2.5728    3.4194    0.7586 C   0  0  0  0  0  0  0  0  0  0  0  0
    2.9112    2.7094    1.7410 O   0  0  0  0  0  0  0  0  0  0  0  0
    2.3682    4.8172    0.9723 N   0  0  0  0  0  0  0  0  0  0  0  0
    1.1952    5.5392    0.4796 C   0  0  2  0  0  0  0  0  0  0  0  0
    1.6216    6.5262   -0.6103 C   0  0  0  0  0  0  0  0  0  0  0  0
    0.5452    6.2704    1.6321 C   0  0  0  0  0  0  0  0  0  0  0  0
    1.2266    7.0871    2.3037 O   0  0  0  0  0  0  0  0  0  0  0  0
   -0.8025    6.0002    2.0371 N   0  0  0  0  0  0  0  0  0  0  0  0
   -1.9351    6.0294    1.0982 C   0  0  2  0  0  0  0  0  0  0  0  0
   -2.1160    7.4441    0.5349 C   0  0  0  0  0  0  0  0  0  0  0  0
   -3.2065    5.6043    1.7954 C   0  0  0  0  0  0  0  0  0  0  0  0
   -3.4680    6.0705    2.9360 O   0  0  0  0  0  0  0  0  0  0  0  0
   -4.1323    4.6840    1.2000 N   0  0  0  0  0  0  0  0  0  0  0  0
   -4.5544    4.7789   -0.2039 C   0  0  2  0  0  0  0  0  0  0  0  0
   -5.6049    5.8801   -0.3692 C   0  0  0  0  0  0  0  0  0  0  0  0
   -5.1007    3.4505   -0.6760 C   0  0  0  0  0  0  0  0  0  0  0  0
   -4.6020    2.9113   -1.7019 O   0  0  0  0  0  0  0  0  0  0  0  0
   -6.1479    2.7909    0.0591 N   0  0  0  0  0  0  0  0  0  0  0  0
   -6.5909    1.4307   -0.2594 C   0  0  2  0  0  0  0  0  0  0  0  0
   -7.7077    1.4746   -1.3020 C   0  0  0  0  0  0  0  0  0  0  0  0
   -7.0744    0.7408    0.9910 C   0  0  0  0  0  0  0  0  0  0  0  0
   -7.9413    1.3017    1.7122 O   0  0  0  0  0  0  0  0  0  0  0  0
   -6.5342   -0.5221    1.4095 N   0  0  0  0  0  0  0  0  0  0  0  0
   -6.4679   -1.6739    0.5023 C   0  0  2  0  0  0  0  0  0  0  0  0
   -7.8397   -2.3521    0.4642 C   0  0  0  0  0  0  0  0  0  0  0  0
   -5.4061   -2.6587    0.9494 C   0  0  0  0  0  0  0  0  0  0  0  0
   -4.7922   -2.4761    2.0348 O   0  0  0  0  0  0  0  0  0  0  0  0
   -5.1407   -3.8558    0.2021 N   0  0  0  0  0  0  0  0  0  0  0  0
   -4.9231   -3.8849   -1.2497 C   0  0  2  0  0  0  0  0  0  0  0  0
   -5.8675   -4.8924   -1.9079 C   0  0  0  0  0  0  0  0  0  0  0  0
   -3.4827   -4.1873   -1.6060 C   0  0  0  0  0  0  0  0  0  0  0  0
   -3.1218   -4.0487   -2.8014 O   0  0  0  0  0  0  0  0  0  0  0  0
   -2.4859   -4.5586   -0.6383 N   0  0  0  0  0  0  0  0  0  0  0  0
   -2.5275   -5.7658    0.2125 C   0  0  1  0  0  0  0  0  0  0  0  0
   -3.3860   -6.8562   -0.3862 C   0  0  0  0  0  0  0  0  0  0  0  0
   -3.1437   -7.3383   -1.7083 N   0  0  0  0  0  0  0  0  0  0  0  0
   -4.3161   -7.3630    0.2995 O   0  0  0  0  0  0  0  0  0  0  0  0
   -1.1060   -6.3189    0.4231 C   0  0  0  0  0  0  0  0  0  0  0  0
   -0.1179   -5.1869    1.4685 S   0  0  0  0  0  0  0  0  0  0  0  0
    1.5381   -5.7206    0.8802 C   0  0  0  0  0  0  0  0  0  0  0  0
    9.4720   -0.8096    4.3681 H   0  0  0  0  0  0  0  0  0  0  0  0
    9.7186   -2.3431    3.4439 H   0  0  0  0  0  0  0  0  0  0  0  0
   10.6605   -0.8642    3.0048 H   0  0  0  0  0  0  0  0  0  0  0  0
    9.5369   -1.7950    0.7174 H   0  0  0  0  0  0  0  0  0  0  0  0
    6.7112   -0.6966    0.5715 H   0  0  0  0  0  0  0  0  0  0  0  0
    6.3983   -2.1166   -1.3959 H   0  0  0  0  0  0  0  0  0  0  0  0
    8.1521   -2.3244   -1.5924 H   0  0  0  0  0  0  0  0  0  0  0  0
    6.1326   -4.2472    2.1231 H   0  0  0  0  0  0  0  0  0  0  0  0
    6.2488   -2.5095    1.8775 H   0  0  0  0  0  0  0  0  0  0  0  0
    4.1680   -5.4548    1.5231 H   0  0  0  0  0  0  0  0  0  0  0  0
    0.9266   -3.3807   -0.4099 H   0  0  0  0  0  0  0  0  0  0  0  0
    4.6899   -1.4282    0.1330 H   0  0  0  0  0  0  0  0  0  0  0  0
    1.2974   -1.2467   -1.4374 H   0  0  0  0  0  0  0  0  0  0  0  0
    2.9850   -0.6698   -1.6349 H   0  0  0  0  0  0  0  0  0  0  0  0
    1.5483    1.2537   -1.8136 H   0  0  0  0  0  0  0  0  0  0  0  0
    0.5080    1.8991   -0.5208 H   0  0  0  0  0  0  0  0  0  0  0  0
    1.9891    3.5871   -1.2732 H   0  0  0  0  0  0  0  0  0  0  0  0
    3.9711    3.0511   -2.1508 H   0  0  0  0  0  0  0  0  0  0  0  0
    5.5514   -0.1060   -1.5765 H   0  0  0  0  0  0  0  0  0  0  0  0
    5.8833    2.4137   -3.2866 H   0  0  0  0  0  0  0  0  0  0  0  0
    4.6263    1.1226   -3.4901 H   0  0  0  0  0  0  0  0  0  0  0  0
    6.3660    0.7394   -3.7249 H   0  0  0  0  0  0  0  0  0  0  0  0
    7.5492    2.1716   -1.3703 H   0  0  0  0  0  0  0  0  0  0  0  0
    3.0064    5.3007    1.6459 H   0  0  0  0  0  0  0  0  0  0  0  0
    0.4661    4.8216    0.0376 H   0  0  0  0  0  0  0  0  0  0  0  0
    2.0618    5.9781   -1.4634 H   0  0  0  0  0  0  0  0  0  0  0  0
    2.3746    7.2404   -0.2198 H   0  0  0  0  0  0  0  0  0  0  0  0
    0.7448    7.0900   -0.9873 H   0  0  0  0  0  0  0  0  0  0  0  0
   -0.9859    5.9798    3.0683 H   0  0  0  0  0  0  0  0  0  0  0  0
   -1.7287    5.3299    0.2635 H   0  0  0  0  0  0  0  0  0  0  0  0
   -2.9060    7.4490   -0.2449 H   0  0  0  0  0  0  0  0  0  0  0  0
   -1.1775    7.8043    0.0670 H   0  0  0  0  0  0  0  0  0  0  0  0
   -2.3948    8.1548    1.3411 H   0  0  0  0  0  0  0  0  0  0  0  0
   -4.7591    4.1866    1.8719 H   0  0  0  0  0  0  0  0  0  0  0  0
   -3.6774    5.0366   -0.8407 H   0  0  0  0  0  0  0  0  0  0  0  0
   -5.2358    6.8374    0.0651 H   0  0  0  0  0  0  0  0  0  0  0  0
   -6.5568    5.6053    0.1212 H   0  0  0  0  0  0  0  0  0  0  0  0
   -5.7914    6.0461   -1.4511 H   0  0  0  0  0  0  0  0  0  0  0  0
   -6.5757    3.2893    0.8646 H   0  0  0  0  0  0  0  0  0  0  0  0
   -5.7365    0.8596   -0.6790 H   0  0  0  0  0  0  0  0  0  0  0  0
   -8.5762    2.0554   -0.9239 H   0  0  0  0  0  0  0  0  0  0  0  0
   -7.3424    1.9505   -2.2382 H   0  0  0  0  0  0  0  0  0  0  0  0
   -8.0519    0.4469   -1.5461 H   0  0  0  0  0  0  0  0  0  0  0  0
   -6.5995   -0.7304    2.4334 H   0  0  0  0  0  0  0  0  0  0  0  0
   -6.2209   -1.3276   -0.5208 H   0  0  0  0  0  0  0  0  0  0  0  0
   -7.8063   -3.2956   -0.1186 H   0  0  0  0  0  0  0  0  0  0  0  0
   -8.1838   -2.5943    1.4914 H   0  0  0  0  0  0  0  0  0  0  0  0
   -8.5819   -1.6832   -0.0164 H   0  0  0  0  0  0  0  0  0  0  0  0
   -5.0192   -4.7367    0.7475 H   0  0  0  0  0  0  0  0  0  0  0  0
   -5.1483   -2.8918   -1.6821 H   0  0  0  0  0  0  0  0  0  0  0  0
   -5.8168   -5.8791   -1.4033 H   0  0  0  0  0  0  0  0  0  0  0  0
   -5.6181   -5.0249   -2.9811 H   0  0  0  0  0  0  0  0  0  0  0  0
   -6.9137   -4.5296   -1.8460 H   0  0  0  0  0  0  0  0  0  0  0  0
   -1.5565   -4.0981   -0.7682 H   0  0  0  0  0  0  0  0  0  0  0  0
   -2.9331   -5.4862    1.2106 H   0  0  0  0  0  0  0  0  0  0  0  0
   -3.7669   -8.0659   -2.1225 H   0  0  0  0  0  0  0  0  0  0  0  0
   -2.3702   -6.9472   -2.2893 H   0  0  0  0  0  0  0  0  0  0  0  0
   -0.6379   -6.4545   -0.5723 H   0  0  0  0  0  0  0  0  0  0  0  0
   -1.1439   -7.3100    0.9303 H   0  0  0  0  0  0  0  0  0  0  0  0
    1.4909   -6.3298   -0.0504 H   0  0  0  0  0  0  0  0  0  0  0  0
    1.9765   -6.3666    1.6740 H   0  0  0  0  0  0  0  0  0  0  0  0
  1  2  1  0
  2  3  2  0
  2  4  1  0
  4  5  1  0
  5  6  1  0
  6  7  1  0
  7  8  1  0
  8  9  1  0
  9 10  1  0
 10 11  2  0
 11 12  1  0
 12 13  2  0
 13 14  1  0
 13 15  1  0
 15 16  1  0
 16 17  1  0
 17 18  1  0
 18 19  1  0
 19 20  1  0
 20 21  2  0
 20 22  1  0
 22 23  1  0
 22 24  1  0
 24 25  1  0
 25 26  2  0
 18 27  1  0
 27 28  2  0
 27 29  1  0
 29 30  1  0
 30 31  1  0
 30 32  1  0
 32 33  2  0
 32 34  1  0
 34 35  1  0
 35 36  1  0
 35 37  1  0
 37 38  2  0
 37 39  1  0
 39 40  1  0
 40 41  1  0
 40 42  1  0
 42 43  2  0
 42 44  1  0
 44 45  1  0
 45 46  1  0
 45 47  1  0
 47 48  2  0
 47 49  1  0
 49 50  1  0
 50 51  1  0
 50 52  1  0
 52 53  2  0
 52 54  1  0
 54 55  1  0
 55 56  1  0
 55 57  1  0
 57 58  2  0
 57 59  1  0
 59 60  1  0
 60 61  1  0
 61 62  1  0
 61 63  2  0
 60 64  1  0
 64 65  1  0
 65 66  1  0
 25  5  1  0
 14  9  2  0
 66 11  1  0
  1 67  1  0
  1 68  1  0
  1 69  1  0
  4 70  1  0
  5 71  1  1
  6 72  1  0
  6 73  1  0
  8 74  1  0
  8 75  1  0
 10 76  1  0
 12 77  1  0
 14 78  1  0
 15 79  1  0
 15 80  1  0
 17 81  1  0
 17 82  1  0
 18 83  1  6
 19 84  1  0
 22 85  1  6
 23 86  1  0
 23 87  1  0
 23 88  1  0
 24 89  1  0
 29 90  1  0
 30 91  1  6
 31 92  1  0
 31 93  1  0
 31 94  1  0
 34 95  1  0
 35 96  1  6
 36 97  1  0
 36 98  1  0
 36 99  1  0
 39100  1  0
 40101  1  6
 41102  1  0
 41103  1  0
 41104  1  0
 44105  1  0
 45106  1  6
 46107  1  0
 46108  1  0
 46109  1  0
 49110  1  0
 50111  1  6
 51112  1  0
 51113  1  0
 51114  1  0
 54115  1  0
 55116  1  6
 56117  1  0
 56118  1  0
 56119  1  0
 59120  1  0
 60121  1  1
 62122  1  0
 62123  1  0
 64124  1  0
 64125  1  0
 66126  1  0
 66127  1  0
M  END
