
     RDKit          3D

227229  0  0  0  0  0  0  0  0999 V2000
   -7.0268   -9.0538    0.4224 C   0  0  0  0  0  0  0  0  0  0  0  0
   -6.2481   -7.8158    0.0924 C   0  0  0  0  0  0  0  0  0  0  0  0
   -5.1321   -7.6278    0.6502 O   0  0  0  0  0  0  0  0  0  0  0  0
   -6.7629   -6.8713   -0.8661 N   0  0  0  0  0  0  0  0  0  0  0  0
   -6.1024   -5.5983   -1.2316 C   0  0  2  0  0  0  0  0  0  0  0  0
   -5.7917   -4.7321    0.0118 C   0  0  0  0  0  0  0  0  0  0  0  0
   -5.2939   -3.0234   -0.4461 S   0  0  0  0  0  0  0  0  0  0  0  0
   -4.2802   -2.6995    1.0425 C   0  0  0  0  0  0  0  0  0  0  0  0
   -2.8298   -2.5721    0.6722 C   0  0  0  0  0  0  0  0  0  0  0  0
   -2.1906   -3.5669   -0.0964 C   0  0  0  0  0  0  0  0  0  0  0  0
   -0.8834   -3.3717   -0.5668 C   0  0  0  0  0  0  0  0  0  0  0  0
   -0.1960   -2.1954   -0.2295 C   0  0  0  0  0  0  0  0  0  0  0  0
   -0.8152   -1.2171    0.5673 C   0  0  0  0  0  0  0  0  0  0  0  0
   -2.1222   -1.4146    1.0173 C   0  0  0  0  0  0  0  0  0  0  0  0
   -0.1177    0.0887    0.8345 C   0  0  0  0  0  0  0  0  0  0  0  0
   -0.3258    1.2306   -0.5904 S   0  0  0  0  0  0  0  0  0  0  0  0
   -2.0408    1.8241   -0.2470 C   0  0  0  0  0  0  0  0  0  0  0  0
   -2.2182    2.6081    1.0823 C   0  0  2  0  0  0  0  0  0  0  0  0
   -3.3373    3.5477    0.9881 N   0  0  0  0  0  0  0  0  0  0  0  0
   -3.6086    4.5460    1.9954 C   0  0  0  0  0  0  0  0  0  0  0  0
   -2.9501    4.5471    3.0693 O   0  0  0  0  0  0  0  0  0  0  0  0
   -4.5700    5.6787    1.7334 C   0  0  1  0  0  0  0  0  0  0  0  0
   -4.2106    6.3867    0.4179 C   0  0  0  0  0  0  0  0  0  0  0  0
   -5.9690    5.2245    1.7007 N   0  0  0  0  0  0  0  0  0  0  0  0
   -6.4981    4.2074    2.5618 C   0  0  0  0  0  0  0  0  0  0  0  0
   -5.9357    3.9527    3.6599 O   0  0  0  0  0  0  0  0  0  0  0  0
   -7.7611    3.4783    2.1911 C   0  0  1  0  0  0  0  0  0  0  0  0
   -9.0050    4.2847    2.5689 C   0  0  0  0  0  0  0  0  0  0  0  0
   -7.7397    3.0783    0.7681 N   0  0  0  0  0  0  0  0  0  0  0  0
   -7.9286    3.9813   -0.3315 C   0  0  0  0  0  0  0  0  0  0  0  0
   -6.9376    4.2704   -1.0587 O   0  0  0  0  0  0  0  0  0  0  0  0
   -9.2978    4.4579   -0.7396 C   0  0  1  0  0  0  0  0  0  0  0  0
   -9.3029    5.9789   -0.9116 C   0  0  0  0  0  0  0  0  0  0  0  0
   -9.6741    3.8256   -2.0117 N   0  0  0  0  0  0  0  0  0  0  0  0
  -10.8523    3.0335   -2.2473 C   0  0  0  0  0  0  0  0  0  0  0  0
  -11.1652    2.7869   -3.4469 O   0  0  0  0  0  0  0  0  0  0  0  0
  -11.7680    2.5760   -1.1335 C   0  0  1  0  0  0  0  0  0  0  0  0
  -12.8197    3.6535   -0.8508 C   0  0  0  0  0  0  0  0  0  0  0  0
  -12.4424    1.3185   -1.5088 N   0  0  0  0  0  0  0  0  0  0  0  0
  -12.6576    0.2100   -0.6220 C   0  0  0  0  0  0  0  0  0  0  0  0
  -12.8846   -0.9244   -1.1306 O   0  0  0  0  0  0  0  0  0  0  0  0
  -12.6567    0.3694    0.8798 C   0  0  1  0  0  0  0  0  0  0  0  0
  -13.3695   -0.7925    1.5922 C   0  0  0  0  0  0  0  0  0  0  0  0
  -11.2991    0.5437    1.4240 N   0  0  0  0  0  0  0  0  0  0  0  0
  -10.2893   -0.4682    1.4007 C   0  0  0  0  0  0  0  0  0  0  0  0
   -9.7914   -0.8568    2.4901 O   0  0  0  0  0  0  0  0  0  0  0  0
   -9.7569   -1.0277    0.1003 C   0  0  1  0  0  0  0  0  0  0  0  0
   -8.2366   -0.8215    0.0249 C   0  0  0  0  0  0  0  0  0  0  0  0
  -10.0675   -2.4459   -0.0117 N   0  0  0  0  0  0  0  0  0  0  0  0
   -9.7583   -3.1712   -1.2076 C   0  0  0  0  0  0  0  0  0  0  0  0
   -9.9890   -2.6466   -2.3323 O   0  0  0  0  0  0  0  0  0  0  0  0
   -9.1844   -4.5596   -1.1155 C   0  0  1  0  0  0  0  0  0  0  0  0
  -10.2912   -5.6001   -0.9970 C   0  0  0  0  0  0  0  0  0  0  0  0
   -8.3524   -4.8341   -2.2892 N   0  0  0  0  0  0  0  0  0  0  0  0
   -6.9122   -4.8701   -2.2831 C   0  0  0  0  0  0  0  0  0  0  0  0
   -6.2939   -4.3660   -3.2615 O   0  0  0  0  0  0  0  0  0  0  0  0
   -0.9572    3.3476    1.4315 C   0  0  0  0  0  0  0  0  0  0  0  0
   -0.3566    3.0698    2.5060 O   0  0  0  0  0  0  0  0  0  0  0  0
   -0.4281    4.3506    0.5603 N   0  0  0  0  0  0  0  0  0  0  0  0
    0.9757    4.7436    0.6261 C   0  0  2  0  0  0  0  0  0  0  0  0
    1.1765    5.7707    1.7536 C   0  0  0  0  0  0  0  0  0  0  0  0
    1.4578    5.2147   -0.7267 C   0  0  0  0  0  0  0  0  0  0  0  0
    1.0815    4.5975   -1.7606 O   0  0  0  0  0  0  0  0  0  0  0  0
    2.3962    6.2885   -0.8455 N   0  0  0  0  0  0  0  0  0  0  0  0
    3.4346    6.2933   -1.8910 C   0  0  2  0  0  0  0  0  0  0  0  0
    4.2919    5.0195   -1.8203 C   0  0  0  0  0  0  0  0  0  0  0  0
    4.3146    7.5060   -1.7398 C   0  0  0  0  0  0  0  0  0  0  0  0
    4.3528    8.3655   -2.6594 O   0  0  0  0  0  0  0  0  0  0  0  0
    5.0734    7.7123   -0.5314 N   0  0  0  0  0  0  0  0  0  0  0  0
    6.5270    7.5180   -0.4167 C   0  0  2  0  0  0  0  0  0  0  0  0
    7.1135    8.6092    0.4845 C   0  0  0  0  0  0  0  0  0  0  0  0
    7.2504    7.5037   -1.7514 C   0  0  0  0  0  0  0  0  0  0  0  0
    7.0766    8.4537   -2.5634 O   0  0  0  0  0  0  0  0  0  0  0  0
    8.1482    6.4371   -2.0962 N   0  0  0  0  0  0  0  0  0  0  0  0
    9.2053    5.9720   -1.1820 C   0  0  2  0  0  0  0  0  0  0  0  0
   10.3039    7.0365   -1.0837 C   0  0  0  0  0  0  0  0  0  0  0  0
    9.7764    4.6637   -1.6659 C   0  0  0  0  0  0  0  0  0  0  0  0
   10.1635    4.5504   -2.8624 O   0  0  0  0  0  0  0  0  0  0  0  0
    9.8478    3.5201   -0.8000 N   0  0  0  0  0  0  0  0  0  0  0  0
   10.9389    3.2964    0.1504 C   0  0  2  0  0  0  0  0  0  0  0  0
   10.6570    4.0067    1.4797 C   0  0  0  0  0  0  0  0  0  0  0  0
   12.2685    3.7130   -0.4426 C   0  0  0  0  0  0  0  0  0  0  0  0
   12.6721    4.9044   -0.3208 O   0  0  0  0  0  0  0  0  0  0  0  0
   13.0344    2.8261   -1.2736 N   0  0  0  0  0  0  0  0  0  0  0  0
   13.1409    1.3755   -1.0316 C   0  0  2  0  0  0  0  0  0  0  0  0
   14.4914    0.8726   -1.5442 C   0  0  0  0  0  0  0  0  0  0  0  0
   12.0054    0.6251   -1.7068 C   0  0  0  0  0  0  0  0  0  0  0  0
   11.2604    1.2381   -2.5246 O   0  0  0  0  0  0  0  0  0  0  0  0
   11.7902   -0.7792   -1.4964 N   0  0  0  0  0  0  0  0  0  0  0  0
   12.1391   -1.4905   -0.2611 C   0  0  2  0  0  0  0  0  0  0  0  0
   12.7708   -2.8445   -0.6035 C   0  0  0  0  0  0  0  0  0  0  0  0
   10.9375   -1.5453    0.6661 C   0  0  0  0  0  0  0  0  0  0  0  0
   10.4939   -0.4538    1.1137 O   0  0  0  0  0  0  0  0  0  0  0  0
   10.3441   -2.7669    1.1395 N   0  0  0  0  0  0  0  0  0  0  0  0
    9.7569   -3.7951    0.2664 C   0  0  2  0  0  0  0  0  0  0  0  0
    8.7702   -3.1521   -0.7223 C   0  0  0  0  0  0  0  0  0  0  0  0
    9.1043   -4.8880    1.0906 C   0  0  0  0  0  0  0  0  0  0  0  0
    9.6923   -5.3337    2.1161 O   0  0  0  0  0  0  0  0  0  0  0  0
    7.8885   -5.4957    0.6585 N   0  0  0  0  0  0  0  0  0  0  0  0
    7.7985   -6.9074    0.2841 C   0  0  2  0  0  0  0  0  0  0  0  0
    9.0610   -7.3800   -0.4536 C   0  0  0  0  0  0  0  0  0  0  0  0
    6.6021   -7.1057   -0.6035 C   0  0  0  0  0  0  0  0  0  0  0  0
    6.5297   -6.5011   -1.7078 O   0  0  0  0  0  0  0  0  0  0  0  0
    5.5605   -8.0122   -0.2249 N   0  0  0  0  0  0  0  0  0  0  0  0
    4.4765   -7.5834    0.6702 C   0  0  2  0  0  0  0  0  0  0  0  0
    4.9476   -7.5948    2.1272 C   0  0  0  0  0  0  0  0  0  0  0  0
    3.2778   -8.4868    0.5180 C   0  0  0  0  0  0  0  0  0  0  0  0
    3.4363   -9.7386    0.5304 O   0  0  0  0  0  0  0  0  0  0  0  0
    1.9614   -7.9566    0.3125 N   0  0  0  0  0  0  0  0  0  0  0  0
    1.4081   -6.9035    1.1660 C   0  0  2  0  0  0  0  0  0  0  0  0
    0.7792   -7.4905    2.4080 C   0  0  0  0  0  0  0  0  0  0  0  0
    0.3561   -8.8491    2.4798 N   0  0  0  0  0  0  0  0  0  0  0  0
    0.6074   -6.7438    3.4133 O   0  0  0  0  0  0  0  0  0  0  0  0
    0.3828   -6.0667    0.3903 C   0  0  0  0  0  0  0  0  0  0  0  0
    1.2193   -5.1243   -0.9398 S   0  0  0  0  0  0  0  0  0  0  0  0
   -0.2947   -4.3171   -1.5739 C   0  0  0  0  0  0  0  0  0  0  0  0
   -7.9695   -9.0977   -0.1619 H   0  0  0  0  0  0  0  0  0  0  0  0
   -7.2642   -9.0558    1.5033 H   0  0  0  0  0  0  0  0  0  0  0  0
   -6.4255   -9.9516    0.1726 H   0  0  0  0  0  0  0  0  0  0  0  0
   -7.6194   -7.1634   -1.3954 H   0  0  0  0  0  0  0  0  0  0  0  0
   -5.1258   -5.8649   -1.6852 H   0  0  0  0  0  0  0  0  0  0  0  0
   -4.9493   -5.2098    0.5516 H   0  0  0  0  0  0  0  0  0  0  0  0
   -6.6385   -4.6817    0.7203 H   0  0  0  0  0  0  0  0  0  0  0  0
   -4.4030   -3.4747    1.8289 H   0  0  0  0  0  0  0  0  0  0  0  0
   -4.6523   -1.7475    1.4842 H   0  0  0  0  0  0  0  0  0  0  0  0
   -2.7468   -4.4327   -0.4166 H   0  0  0  0  0  0  0  0  0  0  0  0
    0.7981   -2.0158   -0.6312 H   0  0  0  0  0  0  0  0  0  0  0  0
   -2.6237   -0.6261    1.5794 H   0  0  0  0  0  0  0  0  0  0  0  0
   -0.4944    0.5476    1.7770 H   0  0  0  0  0  0  0  0  0  0  0  0
    0.9700   -0.0904    0.9739 H   0  0  0  0  0  0  0  0  0  0  0  0
   -2.3146    2.4701   -1.1019 H   0  0  0  0  0  0  0  0  0  0  0  0
   -2.7438    0.9713   -0.2759 H   0  0  0  0  0  0  0  0  0  0  0  0
   -2.4373    1.8786    1.8882 H   0  0  0  0  0  0  0  0  0  0  0  0
   -4.1030    3.3523    0.2928 H   0  0  0  0  0  0  0  0  0  0  0  0
   -4.4668    6.4383    2.5514 H   0  0  0  0  0  0  0  0  0  0  0  0
   -3.1655    6.7588    0.4629 H   0  0  0  0  0  0  0  0  0  0  0  0
   -4.8789    7.2596    0.2545 H   0  0  0  0  0  0  0  0  0  0  0  0
   -4.3133    5.6993   -0.4479 H   0  0  0  0  0  0  0  0  0  0  0  0
   -6.6486    5.7960    1.1475 H   0  0  0  0  0  0  0  0  0  0  0  0
   -7.7993    2.5406    2.7891 H   0  0  0  0  0  0  0  0  0  0  0  0
   -9.9247    3.7197    2.3202 H   0  0  0  0  0  0  0  0  0  0  0  0
   -9.0031    4.4779    3.6670 H   0  0  0  0  0  0  0  0  0  0  0  0
   -9.0096    5.2616    2.0480 H   0  0  0  0  0  0  0  0  0  0  0  0
   -7.1180    2.2678    0.5614 H   0  0  0  0  0  0  0  0  0  0  0  0
  -10.0165    4.2191    0.0560 H   0  0  0  0  0  0  0  0  0  0  0  0
  -10.3427    6.3360   -1.0850 H   0  0  0  0  0  0  0  0  0  0  0  0
   -8.9074    6.4743   -0.0015 H   0  0  0  0  0  0  0  0  0  0  0  0
   -8.6745    6.2811   -1.7758 H   0  0  0  0  0  0  0  0  0  0  0  0
   -9.0773    4.0301   -2.8418 H   0  0  0  0  0  0  0  0  0  0  0  0
  -11.1615    2.4014   -0.2272 H   0  0  0  0  0  0  0  0  0  0  0  0
  -13.5786    3.6710   -1.6629 H   0  0  0  0  0  0  0  0  0  0  0  0
  -13.3254    3.4490    0.1141 H   0  0  0  0  0  0  0  0  0  0  0  0
  -12.3441    4.6520   -0.7839 H   0  0  0  0  0  0  0  0  0  0  0  0
  -12.8072    1.2164   -2.4824 H   0  0  0  0  0  0  0  0  0  0  0  0
  -13.2460    1.2812    1.1157 H   0  0  0  0  0  0  0  0  0  0  0  0
  -14.3959   -0.9217    1.1754 H   0  0  0  0  0  0  0  0  0  0  0  0
  -12.8161   -1.7420    1.4434 H   0  0  0  0  0  0  0  0  0  0  0  0
  -13.4472   -0.5802    2.6808 H   0  0  0  0  0  0  0  0  0  0  0  0
  -11.1827    1.3123    2.1218 H   0  0  0  0  0  0  0  0  0  0  0  0
  -10.1937   -0.4713   -0.7529 H   0  0  0  0  0  0  0  0  0  0  0  0
   -7.8486   -1.1777   -0.9528 H   0  0  0  0  0  0  0  0  0  0  0  0
   -7.9907    0.2559    0.1092 H   0  0  0  0  0  0  0  0  0  0  0  0
   -7.7186   -1.3782    0.8353 H   0  0  0  0  0  0  0  0  0  0  0  0
  -10.7071   -2.9003    0.6918 H   0  0  0  0  0  0  0  0  0  0  0  0
   -8.5808   -4.6071   -0.1900 H   0  0  0  0  0  0  0  0  0  0  0  0
  -10.9590   -5.3682   -0.1372 H   0  0  0  0  0  0  0  0  0  0  0  0
   -9.8439   -6.6006   -0.8167 H   0  0  0  0  0  0  0  0  0  0  0  0
  -10.8980   -5.6474   -1.9280 H   0  0  0  0  0  0  0  0  0  0  0  0
   -8.8170   -4.7954   -3.2239 H   0  0  0  0  0  0  0  0  0  0  0  0
   -1.0840    4.8545   -0.0880 H   0  0  0  0  0  0  0  0  0  0  0  0
    1.5841    3.8452    0.8684 H   0  0  0  0  0  0  0  0  0  0  0  0
    0.6793    6.7267    1.4977 H   0  0  0  0  0  0  0  0  0  0  0  0
    0.7525    5.3903    2.7019 H   0  0  0  0  0  0  0  0  0  0  0  0
    2.2581    5.9533    1.9197 H   0  0  0  0  0  0  0  0  0  0  0  0
    2.4069    7.0348   -0.1198 H   0  0  0  0  0  0  0  0  0  0  0  0
    2.9480    6.3274   -2.8851 H   0  0  0  0  0  0  0  0  0  0  0  0
    4.7548    4.9078   -0.8162 H   0  0  0  0  0  0  0  0  0  0  0  0
    3.6791    4.1173   -2.0236 H   0  0  0  0  0  0  0  0  0  0  0  0
    5.0943    5.0591   -2.5881 H   0  0  0  0  0  0  0  0  0  0  0  0
    4.5364    7.6872    0.3632 H   0  0  0  0  0  0  0  0  0  0  0  0
    6.6842    6.5437    0.0902 H   0  0  0  0  0  0  0  0  0  0  0  0
    6.5618    8.6487    1.4436 H   0  0  0  0  0  0  0  0  0  0  0  0
    7.0412    9.6050   -0.0116 H   0  0  0  0  0  0  0  0  0  0  0  0
    8.1737    8.3933    0.7158 H   0  0  0  0  0  0  0  0  0  0  0  0
    8.2640    6.2553   -3.1217 H   0  0  0  0  0  0  0  0  0  0  0  0
    8.7839    5.8122   -0.1648 H   0  0  0  0  0  0  0  0  0  0  0  0
   11.0062    6.7922   -0.2619 H   0  0  0  0  0  0  0  0  0  0  0  0
   10.8635    7.1209   -2.0383 H   0  0  0  0  0  0  0  0  0  0  0  0
    9.8645    8.0281   -0.8477 H   0  0  0  0  0  0  0  0  0  0  0  0
    9.3205    2.6707   -1.1062 H   0  0  0  0  0  0  0  0  0  0  0  0
   10.9886    2.2134    0.3852 H   0  0  0  0  0  0  0  0  0  0  0  0
   11.4756    3.8008    2.2039 H   0  0  0  0  0  0  0  0  0  0  0  0
    9.7095    3.6204    1.9109 H   0  0  0  0  0  0  0  0  0  0  0  0
   10.5612    5.1038    1.3430 H   0  0  0  0  0  0  0  0  0  0  0  0
   13.6442    3.2560   -2.0053 H   0  0  0  0  0  0  0  0  0  0  0  0
   13.1042    1.2091    0.0655 H   0  0  0  0  0  0  0  0  0  0  0  0
   14.5543    0.9989   -2.6502 H   0  0  0  0  0  0  0  0  0  0  0  0
   15.3181    1.4580   -1.0898 H   0  0  0  0  0  0  0  0  0  0  0  0
   14.6421   -0.1999   -1.3029 H   0  0  0  0  0  0  0  0  0  0  0  0
   11.1273   -1.2596   -2.1545 H   0  0  0  0  0  0  0  0  0  0  0  0
   12.9330   -0.9507    0.2833 H   0  0  0  0  0  0  0  0  0  0  0  0
   12.8524   -3.4787    0.3022 H   0  0  0  0  0  0  0  0  0  0  0  0
   12.2012   -3.3680   -1.3972 H   0  0  0  0  0  0  0  0  0  0  0  0
   13.7947   -2.6871   -1.0012 H   0  0  0  0  0  0  0  0  0  0  0  0
   10.0530   -2.7624    2.1421 H   0  0  0  0  0  0  0  0  0  0  0  0
   10.5538   -4.3035   -0.3023 H   0  0  0  0  0  0  0  0  0  0  0  0
    7.9759   -2.6060   -0.1698 H   0  0  0  0  0  0  0  0  0  0  0  0
    9.3060   -2.4494   -1.3873 H   0  0  0  0  0  0  0  0  0  0  0  0
    8.3063   -3.9198   -1.3749 H   0  0  0  0  0  0  0  0  0  0  0  0
    7.0131   -4.9142    0.7046 H   0  0  0  0  0  0  0  0  0  0  0  0
    7.6954   -7.5150    1.2057 H   0  0  0  0  0  0  0  0  0  0  0  0
    9.9373   -7.3758    0.2335 H   0  0  0  0  0  0  0  0  0  0  0  0
    9.2830   -6.7225   -1.3240 H   0  0  0  0  0  0  0  0  0  0  0  0
    8.9273   -8.4246   -0.8158 H   0  0  0  0  0  0  0  0  0  0  0  0
    5.4151   -8.8251   -0.8670 H   0  0  0  0  0  0  0  0  0  0  0  0
    4.1819   -6.5448    0.3981 H   0  0  0  0  0  0  0  0  0  0  0  0
    4.1049   -7.3901    2.8148 H   0  0  0  0  0  0  0  0  0  0  0  0
    5.3906   -8.5780    2.3824 H   0  0  0  0  0  0  0  0  0  0  0  0
    5.7011   -6.7972    2.2761 H   0  0  0  0  0  0  0  0  0  0  0  0
    1.2905   -8.5378   -0.2496 H   0  0  0  0  0  0  0  0  0  0  0  0
    2.2249   -6.2207    1.4920 H   0  0  0  0  0  0  0  0  0  0  0  0
   -0.0519   -9.2111    3.3664 H   0  0  0  0  0  0  0  0  0  0  0  0
    0.5786   -9.5463    1.7293 H   0  0  0  0  0  0  0  0  0  0  0  0
   -0.1077   -5.3463    1.0867 H   0  0  0  0  0  0  0  0  0  0  0  0
   -0.3983   -6.7245   -0.0483 H   0  0  0  0  0  0  0  0  0  0  0  0
   -1.0307   -5.0890   -1.8750 H   0  0  0  0  0  0  0  0  0  0  0  0
   -0.0273   -3.7432   -2.4880 H   0  0  0  0  0  0  0  0  0  0  0  0
  1  2  1  0
  2  3  2  0
  2  4  1  0
  4  5  1  0
  5  6  1  0
  6  7  1  0
  7  8  1  0
  8  9  1  0
  9 10  1  0
 10 11  2  0
 11 12  1  0
 12 13  2  0
 13 14  1  0
 13 15  1  0
 15 16  1  0
 16 17  1  0
 17 18  1  0
 18 19  1  0
 19 20  1  0
 20 21  2  0
 20 22  1  0
 22 23  1  0
 22 24  1  0
 24 25  1  0
 25 26  2  0
 25 27  1  0
 27 28  1  0
 27 29  1  0
 29 30  1  0
 30 31  2  0
 30 32  1  0
 32 33  1  0
 32 34  1  0
 34 35  1  0
 35 36  2  0
 35 37  1  0
 37 38  1  0
 37 39  1  0
 39 40  1  0
 40 41  2  0
 40 42  1  0
 42 43  1  0
 42 44  1  0
 44 45  1  0
 45 46  2  0
 45 47  1  0
 47 48  1  0
 47 49  1  0
 49 50  1  0
 50 51  2  0
 50 52  1  0
 52 53  1  0
 52 54  1  0
 54 55  1  0
 55 56  2  0
 18 57  1  0
 57 58  2  0
 57 59  1  0
 59 60  1  0
 60 61  1  0
 60 62  1  0
 62 63  2  0
 62 64  1  0
 64 65  1  0
 65 66  1  0
 65 67  1  0
 67 68  2  0
 67 69  1  0
 69 70  1  0
 70 71  1  0
 70 72  1  0
 72 73  2  0
 72 74  1  0
 74 75  1  0
 75 76  1  0
 75 77  1  0
 77 78  2  0
 77 79  1  0
 79 80  1  0
 80 81  1  0
 80 82  1  0
 82 83  2  0
 82 84  1  0
 84 85  1  0
 85 86  1  0
 85 87  1  0
 87 88  2  0
 87 89  1  0
 89 90  1  0
 90 91  1  0
 90 92  1  0
 92 93  2  0
 92 94  1  0
 94 95  1  0
 95 96  1  0
 95 97  1  0
 97 98  2  0
 97 99  1  0
 99100  1  0
100101  1  0
100102  1  0
102103  2  0
102104  1  0
104105  1  0
105106  1  0
105107  1  0
107108  2  0
107109  1  0
109110  1  0
110111  1  0
111112  1  0
111113  2  0
110114  1  0
114115  1  0
115116  1  0
 55  5  1  0
 14  9  2  0
116 11  1  0
  1117  1  0
  1118  1  0
  1119  1  0
  4120  1  0
  5121  1  6
  6122  1  0
  6123  1  0
  8124  1  0
  8125  1  0
 10126  1  0
 12127  1  0
 14128  1  0
 15129  1  0
 15130  1  0
 17131  1  0
 17132  1  0
 18133  1  1
 19134  1  0
 22135  1  1
 23136  1  0
 23137  1  0
 23138  1  0
 24139  1  0
 27140  1  1
 28141  1  0
 28142  1  0
 28143  1  0
 29144  1  0
 32145  1  1
 33146  1  0
 33147  1  0
 33148  1  0
 34149  1  0
 37150  1  1
 38151  1  0
 38152  1  0
 38153  1  0
 39154  1  0
 42155  1  6
 43156  1  0
 43157  1  0
 43158  1  0
 44159  1  0
 47160  1  6
 48161  1  0
 48162  1  0
 48163  1  0
 49164  1  0
 52165  1  1
 53166  1  0
 53167  1  0
 53168  1  0
 54169  1  0
 59170  1  0
 60171  1  1
 61172  1  0
 61173  1  0
 61174  1  0
 64175  1  0
 65176  1  6
 66177  1  0
 66178  1  0
 66179  1  0
 69180  1  0
 70181  1  1
 71182  1  0
 71183  1  0
 71184  1  0
 74185  1  0
 75186  1  1
 76187  1  0
 76188  1  0
 76189  1  0
 79190  1  0
 80191  1  1
 81192  1  0
 81193  1  0
 81194  1  0
 84195  1  0
 85196  1  1
 86197  1  0
 86198  1  0
 86199  1  0
 89200  1  0
 90201  1  1
 91202  1  0
 91203  1  0
 91204  1  0
 94205  1  0
 95206  1  6
 96207  1  0
 96208  1  0
 96209  1  0
 99210  1  0
100211  1  1
101212  1  0
101213  1  0
101214  1  0
104215  1  0
105216  1  6
106217  1  0
106218  1  0
106219  1  0
109220  1  0
110221  1  1
112222  1  0
112223  1  0
114224  1  0
114225  1  0
116226  1  0
116227  1  0
M  END
