
     RDKit          3D

177179  0  0  0  0  0  0  0  0999 V2000
   -2.6013    9.9179    0.9897 C   0  0  0  0  0  0  0  0  0  0  0  0
   -2.1698    9.2481   -0.2764 C   0  0  0  0  0  0  0  0  0  0  0  0
   -2.0210    9.9352   -1.3255 O   0  0  0  0  0  0  0  0  0  0  0  0
   -1.9369    7.8326   -0.2938 N   0  0  0  0  0  0  0  0  0  0  0  0
   -1.8899    7.0659   -1.5431 C   0  0  1  0  0  0  0  0  0  0  0  0
   -0.9424    5.8482   -1.4400 C   0  0  0  0  0  0  0  0  0  0  0  0
   -1.3975    4.6759   -0.0963 S   0  0  0  0  0  0  0  0  0  0  0  0
   -0.4591    3.2256   -0.7189 C   0  0  0  0  0  0  0  0  0  0  0  0
    0.7750    3.0016    0.1148 C   0  0  0  0  0  0  0  0  0  0  0  0
    1.8769    3.8625   -0.0124 C   0  0  0  0  0  0  0  0  0  0  0  0
    3.0218    3.6762    0.7775 C   0  0  0  0  0  0  0  0  0  0  0  0
    3.0699    2.6090    1.6840 C   0  0  0  0  0  0  0  0  0  0  0  0
    1.9843    1.7306    1.8089 C   0  0  0  0  0  0  0  0  0  0  0  0
    0.8364    1.9359    1.0284 C   0  0  0  0  0  0  0  0  0  0  0  0
    2.0485    0.5971    2.7942 C   0  0  0  0  0  0  0  0  0  0  0  0
    3.2397   -0.6621    2.2372 S   0  0  0  0  0  0  0  0  0  0  0  0
    2.2009   -1.3932    0.9173 C   0  0  0  0  0  0  0  0  0  0  0  0
    2.5955   -2.8663    0.7041 C   0  0  1  0  0  0  0  0  0  0  0  0
    1.5216   -3.5773    0.0059 N   0  0  0  0  0  0  0  0  0  0  0  0
    1.6419   -4.2164   -1.2763 C   0  0  0  0  0  0  0  0  0  0  0  0
    2.2458   -3.6422   -2.2255 O   0  0  0  0  0  0  0  0  0  0  0  0
    1.0821   -5.6049   -1.4908 C   0  0  1  0  0  0  0  0  0  0  0  0
    1.8687   -6.5962   -0.6247 C   0  0  0  0  0  0  0  0  0  0  0  0
   -0.3520   -5.6555   -1.1582 N   0  0  0  0  0  0  0  0  0  0  0  0
   -1.1000   -6.8844   -1.2081 C   0  0  0  0  0  0  0  0  0  0  0  0
   -0.7719   -7.7760   -2.0413 O   0  0  0  0  0  0  0  0  0  0  0  0
   -2.2078   -7.1817   -0.2276 C   0  0  1  0  0  0  0  0  0  0  0  0
   -1.6879   -8.0987    0.8806 C   0  0  0  0  0  0  0  0  0  0  0  0
   -2.7456   -5.9498    0.3677 N   0  0  0  0  0  0  0  0  0  0  0  0
   -4.0832   -5.4426    0.2015 C   0  0  0  0  0  0  0  0  0  0  0  0
   -4.4160   -4.4066    0.8386 O   0  0  0  0  0  0  0  0  0  0  0  0
   -5.1105   -6.1224   -0.6790 C   0  0  1  0  0  0  0  0  0  0  0  0
   -5.7728   -7.2966    0.0630 C   0  0  0  0  0  0  0  0  0  0  0  0
   -6.1089   -5.1645   -1.1698 N   0  0  0  0  0  0  0  0  0  0  0  0
   -7.3251   -4.8449   -0.4803 C   0  0  0  0  0  0  0  0  0  0  0  0
   -7.3151   -4.6481    0.7651 O   0  0  0  0  0  0  0  0  0  0  0  0
   -8.6098   -4.7107   -1.2554 C   0  0  1  0  0  0  0  0  0  0  0  0
   -9.7360   -5.4987   -0.5703 C   0  0  0  0  0  0  0  0  0  0  0  0
   -8.9239   -3.2816   -1.4564 N   0  0  0  0  0  0  0  0  0  0  0  0
  -10.0984   -2.6233   -0.9586 C   0  0  0  0  0  0  0  0  0  0  0  0
  -11.2356   -3.0161   -1.3334 O   0  0  0  0  0  0  0  0  0  0  0  0
  -10.0026   -1.5288    0.0799 C   0  0  1  0  0  0  0  0  0  0  0  0
  -10.0736   -2.1427    1.4805 C   0  0  0  0  0  0  0  0  0  0  0  0
   -8.7821   -0.7233   -0.0678 N   0  0  0  0  0  0  0  0  0  0  0  0
   -8.5895    0.4794    0.6907 C   0  0  0  0  0  0  0  0  0  0  0  0
   -7.8652    0.4268    1.7237 O   0  0  0  0  0  0  0  0  0  0  0  0
   -9.0611    1.8283    0.1803 C   0  0  1  0  0  0  0  0  0  0  0  0
  -10.4861    1.7731   -0.3781 C   0  0  0  0  0  0  0  0  0  0  0  0
   -9.0075    2.8214    1.2600 N   0  0  0  0  0  0  0  0  0  0  0  0
   -8.5932    4.1880    1.0999 C   0  0  0  0  0  0  0  0  0  0  0  0
   -8.2785    4.8458    2.1308 O   0  0  0  0  0  0  0  0  0  0  0  0
   -8.5189    4.8690   -0.2498 C   0  0  1  0  0  0  0  0  0  0  0  0
   -9.3842    6.1373   -0.2402 C   0  0  0  0  0  0  0  0  0  0  0  0
   -7.1051    5.1055   -0.5875 N   0  0  0  0  0  0  0  0  0  0  0  0
   -6.4208    6.3735   -0.5705 C   0  0  0  0  0  0  0  0  0  0  0  0
   -6.9901    7.4157   -0.9939 O   0  0  0  0  0  0  0  0  0  0  0  0
   -4.9854    6.4625   -0.1225 C   0  0  1  0  0  0  0  0  0  0  0  0
   -4.7756    5.7709    1.2265 C   0  0  0  0  0  0  0  0  0  0  0  0
   -4.1054    5.8628   -1.1346 N   0  0  0  0  0  0  0  0  0  0  0  0
   -3.2780    6.6719   -1.9727 C   0  0  0  0  0  0  0  0  0  0  0  0
   -3.7185    7.0545   -3.0906 O   0  0  0  0  0  0  0  0  0  0  0  0
    3.9477   -3.0259    0.0372 C   0  0  0  0  0  0  0  0  0  0  0  0
    4.4778   -2.0633   -0.5864 O   0  0  0  0  0  0  0  0  0  0  0  0
    4.5838   -4.3074    0.0026 N   0  0  0  0  0  0  0  0  0  0  0  0
    5.4382   -4.8247    1.0783 C   0  0  2  0  0  0  0  0  0  0  0  0
    4.6210   -5.2306    2.3105 C   0  0  0  0  0  0  0  0  0  0  0  0
    6.5284   -3.8400    1.4281 C   0  0  0  0  0  0  0  0  0  0  0  0
    6.2748   -2.8616    2.1832 O   0  0  0  0  0  0  0  0  0  0  0  0
    7.8663   -4.0158    0.9466 N   0  0  0  0  0  0  0  0  0  0  0  0
    8.1715   -4.4327   -0.4230 C   0  0  2  0  0  0  0  0  0  0  0  0
    8.9750   -5.7357   -0.3943 C   0  0  0  0  0  0  0  0  0  0  0  0
    8.9346   -3.3641   -1.1787 C   0  0  0  0  0  0  0  0  0  0  0  0
    9.2017   -3.5623   -2.3982 O   0  0  0  0  0  0  0  0  0  0  0  0
    9.3374   -2.1302   -0.5570 N   0  0  0  0  0  0  0  0  0  0  0  0
   10.3606   -1.2616   -1.1516 C   0  0  2  0  0  0  0  0  0  0  0  0
   11.7230   -1.9741   -1.1812 C   0  0  0  0  0  0  0  0  0  0  0  0
   10.4487    0.0310   -0.3802 C   0  0  0  0  0  0  0  0  0  0  0  0
   11.1170    0.0767    0.6845 O   0  0  0  0  0  0  0  0  0  0  0  0
    9.7229    1.1884   -0.8443 N   0  0  0  0  0  0  0  0  0  0  0  0
    9.9932    2.5690   -0.4080 C   0  0  2  0  0  0  0  0  0  0  0  0
   11.4766    2.9292   -0.5542 C   0  0  0  0  0  0  0  0  0  0  0  0
    9.5085    2.8174    1.0116 C   0  0  0  0  0  0  0  0  0  0  0  0
   10.0507    2.1763    1.9565 O   0  0  0  0  0  0  0  0  0  0  0  0
    8.5484    3.8371    1.3592 N   0  0  0  0  0  0  0  0  0  0  0  0
    7.5826    4.4990    0.4709 C   0  0  1  0  0  0  0  0  0  0  0  0
    8.2699    5.3524   -0.5717 C   0  0  0  0  0  0  0  0  0  0  0  0
    9.3642    6.1892   -0.2024 N   0  0  0  0  0  0  0  0  0  0  0  0
    7.8549    5.3688   -1.7589 O   0  0  0  0  0  0  0  0  0  0  0  0
    6.5776    3.4705   -0.0905 C   0  0  0  0  0  0  0  0  0  0  0  0
    5.1293    4.2802   -0.8804 S   0  0  0  0  0  0  0  0  0  0  0  0
    4.1840    4.6224    0.6534 C   0  0  0  0  0  0  0  0  0  0  0  0
   -2.6815   11.0163    0.8451 H   0  0  0  0  0  0  0  0  0  0  0  0
   -3.5952    9.5251    1.2933 H   0  0  0  0  0  0  0  0  0  0  0  0
   -1.8605    9.7072    1.7892 H   0  0  0  0  0  0  0  0  0  0  0  0
   -2.0048    7.3209    0.6141 H   0  0  0  0  0  0  0  0  0  0  0  0
   -1.4545    7.7105   -2.3407 H   0  0  0  0  0  0  0  0  0  0  0  0
    0.0888    6.2143   -1.2525 H   0  0  0  0  0  0  0  0  0  0  0  0
   -0.9563    5.3292   -2.4197 H   0  0  0  0  0  0  0  0  0  0  0  0
   -1.1327    2.3472   -0.6544 H   0  0  0  0  0  0  0  0  0  0  0  0
   -0.1670    3.3223   -1.7833 H   0  0  0  0  0  0  0  0  0  0  0  0
    1.8451    4.6768   -0.7268 H   0  0  0  0  0  0  0  0  0  0  0  0
    3.9555    2.4615    2.2968 H   0  0  0  0  0  0  0  0  0  0  0  0
   -0.0039    1.2628    1.1288 H   0  0  0  0  0  0  0  0  0  0  0  0
    2.3960    0.9881    3.7766 H   0  0  0  0  0  0  0  0  0  0  0  0
    1.0535    0.1412    2.9654 H   0  0  0  0  0  0  0  0  0  0  0  0
    1.1267   -1.3388    1.1981 H   0  0  0  0  0  0  0  0  0  0  0  0
    2.3375   -0.8182   -0.0246 H   0  0  0  0  0  0  0  0  0  0  0  0
    2.6688   -3.3181    1.7139 H   0  0  0  0  0  0  0  0  0  0  0  0
    0.6194   -3.6781    0.5180 H   0  0  0  0  0  0  0  0  0  0  0  0
    1.2078   -5.8924   -2.5595 H   0  0  0  0  0  0  0  0  0  0  0  0
    1.5601   -7.6405   -0.8373 H   0  0  0  0  0  0  0  0  0  0  0  0
    1.6981   -6.3861    0.4544 H   0  0  0  0  0  0  0  0  0  0  0  0
    2.9526   -6.5217   -0.8420 H   0  0  0  0  0  0  0  0  0  0  0  0
   -0.8144   -4.8056   -0.7708 H   0  0  0  0  0  0  0  0  0  0  0  0
   -2.9966   -7.7477   -0.7646 H   0  0  0  0  0  0  0  0  0  0  0  0
   -1.3340   -9.0637    0.4538 H   0  0  0  0  0  0  0  0  0  0  0  0
   -0.8498   -7.6139    1.4278 H   0  0  0  0  0  0  0  0  0  0  0  0
   -2.5025   -8.3188    1.6039 H   0  0  0  0  0  0  0  0  0  0  0  0
   -2.1214   -5.4225    1.0195 H   0  0  0  0  0  0  0  0  0  0  0  0
   -4.5962   -6.5269   -1.5733 H   0  0  0  0  0  0  0  0  0  0  0  0
   -6.1709   -6.9743    1.0466 H   0  0  0  0  0  0  0  0  0  0  0  0
   -6.6031   -7.7104   -0.5490 H   0  0  0  0  0  0  0  0  0  0  0  0
   -5.0430   -8.1099    0.2469 H   0  0  0  0  0  0  0  0  0  0  0  0
   -5.9549   -4.7383   -2.1165 H   0  0  0  0  0  0  0  0  0  0  0  0
   -8.4646   -5.1619   -2.2597 H   0  0  0  0  0  0  0  0  0  0  0  0
   -9.3987   -6.5472   -0.3745 H   0  0  0  0  0  0  0  0  0  0  0  0
  -10.0086   -5.0409    0.4043 H   0  0  0  0  0  0  0  0  0  0  0  0
  -10.6337   -5.5383   -1.2189 H   0  0  0  0  0  0  0  0  0  0  0  0
   -8.2014   -2.7002   -1.9364 H   0  0  0  0  0  0  0  0  0  0  0  0
  -10.8953   -0.8751   -0.0481 H   0  0  0  0  0  0  0  0  0  0  0  0
  -10.9748   -2.7910    1.5746 H   0  0  0  0  0  0  0  0  0  0  0  0
   -9.1665   -2.7481    1.6889 H   0  0  0  0  0  0  0  0  0  0  0  0
  -10.1517   -1.3375    2.2457 H   0  0  0  0  0  0  0  0  0  0  0  0
   -7.8942   -1.2366   -0.2772 H   0  0  0  0  0  0  0  0  0  0  0  0
   -8.3681    2.1189   -0.6422 H   0  0  0  0  0  0  0  0  0  0  0  0
  -10.5294    1.1234   -1.2819 H   0  0  0  0  0  0  0  0  0  0  0  0
  -11.1951    1.4053    0.3933 H   0  0  0  0  0  0  0  0  0  0  0  0
  -10.8179    2.7868   -0.6941 H   0  0  0  0  0  0  0  0  0  0  0  0
   -9.3028    2.5250    2.2189 H   0  0  0  0  0  0  0  0  0  0  0  0
   -8.9492    4.2206   -1.0328 H   0  0  0  0  0  0  0  0  0  0  0  0
  -10.4377    5.8767    0.0167 H   0  0  0  0  0  0  0  0  0  0  0  0
   -9.3871    6.6048   -1.2506 H   0  0  0  0  0  0  0  0  0  0  0  0
   -9.0165    6.8756    0.5061 H   0  0  0  0  0  0  0  0  0  0  0  0
   -6.5127    4.2513   -0.6731 H   0  0  0  0  0  0  0  0  0  0  0  0
   -4.7238    7.5367    0.0121 H   0  0  0  0  0  0  0  0  0  0  0  0
   -3.7303    5.9165    1.5728 H   0  0  0  0  0  0  0  0  0  0  0  0
   -4.9676    4.6774    1.1501 H   0  0  0  0  0  0  0  0  0  0  0  0
   -5.4530    6.2084    1.9883 H   0  0  0  0  0  0  0  0  0  0  0  0
   -4.2394    4.8616   -1.4050 H   0  0  0  0  0  0  0  0  0  0  0  0
    4.6129   -4.7907   -0.9202 H   0  0  0  0  0  0  0  0  0  0  0  0
    5.9172   -5.7527    0.7018 H   0  0  0  0  0  0  0  0  0  0  0  0
    3.7448   -5.8423    2.0120 H   0  0  0  0  0  0  0  0  0  0  0  0
    5.2536   -5.8364    2.9908 H   0  0  0  0  0  0  0  0  0  0  0  0
    4.2714   -4.3448    2.8783 H   0  0  0  0  0  0  0  0  0  0  0  0
    8.6519   -3.7444    1.5776 H   0  0  0  0  0  0  0  0  0  0  0  0
    7.2277   -4.6218   -0.9787 H   0  0  0  0  0  0  0  0  0  0  0  0
    9.1322   -6.1054   -1.4308 H   0  0  0  0  0  0  0  0  0  0  0  0
    8.4104   -6.5101    0.1687 H   0  0  0  0  0  0  0  0  0  0  0  0
    9.9623   -5.5757    0.0856 H   0  0  0  0  0  0  0  0  0  0  0  0
    8.8703   -1.8209    0.3287 H   0  0  0  0  0  0  0  0  0  0  0  0
   10.0635   -1.0350   -2.1975 H   0  0  0  0  0  0  0  0  0  0  0  0
   12.5107   -1.2799   -1.5482 H   0  0  0  0  0  0  0  0  0  0  0  0
   11.6879   -2.8487   -1.8610 H   0  0  0  0  0  0  0  0  0  0  0  0
   11.9976   -2.3239   -0.1613 H   0  0  0  0  0  0  0  0  0  0  0  0
    9.2145    1.0835   -1.7486 H   0  0  0  0  0  0  0  0  0  0  0  0
    9.4535    3.2297   -1.1092 H   0  0  0  0  0  0  0  0  0  0  0  0
   11.8308    2.6733   -1.5734 H   0  0  0  0  0  0  0  0  0  0  0  0
   12.1011    2.3827    0.1848 H   0  0  0  0  0  0  0  0  0  0  0  0
   11.6163    4.0163   -0.3914 H   0  0  0  0  0  0  0  0  0  0  0  0
    8.4943    4.0889    2.3729 H   0  0  0  0  0  0  0  0  0  0  0  0
    7.0045    5.2149    1.0980 H   0  0  0  0  0  0  0  0  0  0  0  0
    9.8617    6.7577   -0.9265 H   0  0  0  0  0  0  0  0  0  0  0  0
    9.6981    6.2252    0.7870 H   0  0  0  0  0  0  0  0  0  0  0  0
    6.2265    2.8022    0.7219 H   0  0  0  0  0  0  0  0  0  0  0  0
    7.0753    2.8249   -0.8415 H   0  0  0  0  0  0  0  0  0  0  0  0
    4.8228    4.5891    1.5588 H   0  0  0  0  0  0  0  0  0  0  0  0
    3.8000    5.6645    0.5830 H   0  0  0  0  0  0  0  0  0  0  0  0
  1  2  1  0
  2  3  2  0
  2  4  1  0
  4  5  1  0
  5  6  1  0
  6  7  1  0
  7  8  1  0
  8  9  1  0
  9 10  2  0
 10 11  1  0
 11 12  2  0
 12 13  1  0
 13 14  2  0
 13 15  1  0
 15 16  1  0
 16 17  1  0
 17 18  1  0
 18 19  1  0
 19 20  1  0
 20 21  2  0
 20 22  1  0
 22 23  1  0
 22 24  1  0
 24 25  1  0
 25 26  2  0
 25 27  1  0
 27 28  1  0
 27 29  1  0
 29 30  1  0
 30 31  2  0
 30 32  1  0
 32 33  1  0
 32 34  1  0
 34 35  1  0
 35 36  2  0
 35 37  1  0
 37 38  1  0
 37 39  1  0
 39 40  1  0
 40 41  2  0
 40 42  1  0
 42 43  1  0
 42 44  1  0
 44 45  1  0
 45 46  2  0
 45 47  1  0
 47 48  1  0
 47 49  1  0
 49 50  1  0
 50 51  2  0
 50 52  1  0
 52 53  1  0
 52 54  1  0
 54 55  1  0
 55 56  2  0
 55 57  1  0
 57 58  1  0
 57 59  1  0
 59 60  1  0
 60 61  2  0
 18 62  1  0
 62 63  2  0
 62 64  1  0
 64 65  1  0
 65 66  1  0
 65 67  1  0
 67 68  2  0
 67 69  1  0
 69 70  1  0
 70 71  1  0
 70 72  1  0
 72 73  2  0
 72 74  1  0
 74 75  1  0
 75 76  1  0
 75 77  1  0
 77 78  2  0
 77 79  1  0
 79 80  1  0
 80 81  1  0
 80 82  1  0
 82 83  2  0
 82 84  1  0
 84 85  1  0
 85 86  1  0
 86 87  1  0
 86 88  2  0
 85 89  1  0
 89 90  1  0
 90 91  1  0
 60  5  1  0
 14  9  1  0
 91 11  1  0
  1 92  1  0
  1 93  1  0
  1 94  1  0
  4 95  1  0
  5 96  1  6
  6 97  1  0
  6 98  1  0
  8 99  1  0
  8100  1  0
 10101  1  0
 12102  1  0
 14103  1  0
 15104  1  0
 15105  1  0
 17106  1  0
 17107  1  0
 18108  1  1
 19109  1  0
 22110  1  6
 23111  1  0
 23112  1  0
 23113  1  0
 24114  1  0
 27115  1  6
 28116  1  0
 28117  1  0
 28118  1  0
 29119  1  0
 32120  1  6
 33121  1  0
 33122  1  0
 33123  1  0
 34124  1  0
 37125  1  6
 38126  1  0
 38127  1  0
 38128  1  0
 39129  1  0
 42130  1  6
 43131  1  0
 43132  1  0
 43133  1  0
 44134  1  0
 47135  1  6
 48136  1  0
 48137  1  0
 48138  1  0
 49139  1  0
 52140  1  6
 53141  1  0
 53142  1  0
 53143  1  0
 54144  1  0
 57145  1  1
 58146  1  0
 58147  1  0
 58148  1  0
 59149  1  0
 64150  1  0
 65151  1  6
 66152  1  0
 66153  1  0
 66154  1  0
 69155  1  0
 70156  1  6
 71157  1  0
 71158  1  0
 71159  1  0
 74160  1  0
 75161  1  6
 76162  1  0
 76163  1  0
 76164  1  0
 79165  1  0
 80166  1  6
 81167  1  0
 81168  1  0
 81169  1  0
 84170  1  0
 85171  1  1
 87172  1  0
 87173  1  0
 89174  1  0
 89175  1  0
 91176  1  0
 91177  1  0
M  END
