
     RDKit          3D

127129  0  0  0  0  0  0  0  0999 V2000
   10.2632   -0.8791    2.2356 C   0  0  0  0  0  0  0  0  0  0  0  0
    9.0542    0.0038    2.2309 C   0  0  0  0  0  0  0  0  0  0  0  0
    8.6068    0.4309    3.3302 O   0  0  0  0  0  0  0  0  0  0  0  0
    8.4356    0.3872    0.9902 N   0  0  0  0  0  0  0  0  0  0  0  0
    7.2037    1.1785    0.8873 C   0  0  2  0  0  0  0  0  0  0  0  0
    7.5856    2.6658    1.1011 C   0  0  0  0  0  0  0  0  0  0  0  0
    6.1689    3.8335    1.1078 S   0  0  0  0  0  0  0  0  0  0  0  0
    5.8890    3.9538   -0.6993 C   0  0  0  0  0  0  0  0  0  0  0  0
    4.4147    3.8341   -0.9588 C   0  0  0  0  0  0  0  0  0  0  0  0
    3.5263    4.7925   -0.4370 C   0  0  0  0  0  0  0  0  0  0  0  0
    2.1362    4.5855   -0.4878 C   0  0  0  0  0  0  0  0  0  0  0  0
    1.6410    3.4252   -1.0993 C   0  0  0  0  0  0  0  0  0  0  0  0
    2.5170    2.4824   -1.6630 C   0  0  0  0  0  0  0  0  0  0  0  0
    3.9036    2.7055   -1.6068 C   0  0  0  0  0  0  0  0  0  0  0  0
    1.9845    1.2051   -2.2581 C   0  0  0  0  0  0  0  0  0  0  0  0
    0.7791    0.3643   -1.1550 S   0  0  0  0  0  0  0  0  0  0  0  0
    1.8278    0.2236    0.3515 C   0  0  0  0  0  0  0  0  0  0  0  0
    2.4453   -1.1670    0.5260 C   0  0  2  0  0  0  0  0  0  0  0  0
    3.3854   -1.4350   -0.5686 N   0  0  0  0  0  0  0  0  0  0  0  0
    4.7877   -1.1504   -0.4625 C   0  0  0  0  0  0  0  0  0  0  0  0
    5.3568   -0.5375   -1.4037 O   0  0  0  0  0  0  0  0  0  0  0  0
    5.5940   -1.6675    0.7017 C   0  0  1  0  0  0  0  0  0  0  0  0
    6.9684   -2.1993    0.2849 C   0  0  0  0  0  0  0  0  0  0  0  0
    5.6562   -0.7122    1.8177 N   0  0  0  0  0  0  0  0  0  0  0  0
    6.1365    0.6458    1.8391 C   0  0  0  0  0  0  0  0  0  0  0  0
    5.6682    1.4122    2.7278 O   0  0  0  0  0  0  0  0  0  0  0  0
    1.3983   -2.2458    0.6021 C   0  0  0  0  0  0  0  0  0  0  0  0
    0.3976   -2.0981    1.3590 O   0  0  0  0  0  0  0  0  0  0  0  0
    1.5605   -3.4719   -0.1154 N   0  0  0  0  0  0  0  0  0  0  0  0
    2.0412   -4.6805    0.5499 C   0  0  2  0  0  0  0  0  0  0  0  0
    3.2563   -5.2197   -0.2102 C   0  0  0  0  0  0  0  0  0  0  0  0
    0.9188   -5.6839    0.6365 C   0  0  0  0  0  0  0  0  0  0  0  0
    1.1499   -6.9201    0.5006 O   0  0  0  0  0  0  0  0  0  0  0  0
   -0.3958   -5.2447    1.0114 N   0  0  0  0  0  0  0  0  0  0  0  0
   -1.6265   -5.4998    0.2488 C   0  0  2  0  0  0  0  0  0  0  0  0
   -1.4431   -6.5118   -0.8923 C   0  0  0  0  0  0  0  0  0  0  0  0
   -2.1431   -4.1906   -0.3076 C   0  0  0  0  0  0  0  0  0  0  0  0
   -1.3917   -3.4952   -1.0419 O   0  0  0  0  0  0  0  0  0  0  0  0
   -3.4489   -3.6919    0.0156 N   0  0  0  0  0  0  0  0  0  0  0  0
   -4.6407   -4.5418    0.0421 C   0  0  2  0  0  0  0  0  0  0  0  0
   -5.4615   -4.3108   -1.2287 C   0  0  0  0  0  0  0  0  0  0  0  0
   -5.4150   -4.2857    1.3090 C   0  0  0  0  0  0  0  0  0  0  0  0
   -4.9848   -4.7655    2.3934 O   0  0  0  0  0  0  0  0  0  0  0  0
   -6.6588   -3.5729    1.3154 N   0  0  0  0  0  0  0  0  0  0  0  0
   -6.7496   -2.1404    1.0340 C   0  0  2  0  0  0  0  0  0  0  0  0
   -7.1985   -1.4056    2.2992 C   0  0  0  0  0  0  0  0  0  0  0  0
   -7.7247   -1.9004   -0.0933 C   0  0  0  0  0  0  0  0  0  0  0  0
   -8.7565   -2.6195   -0.1816 O   0  0  0  0  0  0  0  0  0  0  0  0
   -7.4711   -0.9102   -1.1065 N   0  0  0  0  0  0  0  0  0  0  0  0
   -7.0825    0.4679   -0.7732 C   0  0  2  0  0  0  0  0  0  0  0  0
   -8.3438    1.2683   -0.4278 C   0  0  0  0  0  0  0  0  0  0  0  0
   -6.3424    1.1122   -1.9285 C   0  0  0  0  0  0  0  0  0  0  0  0
   -6.6504    0.7941   -3.1105 O   0  0  0  0  0  0  0  0  0  0  0  0
   -5.3068    2.0930   -1.7268 N   0  0  0  0  0  0  0  0  0  0  0  0
   -5.3099    3.0545   -0.6194 C   0  0  2  0  0  0  0  0  0  0  0  0
   -6.0982    4.3102   -1.0070 C   0  0  0  0  0  0  0  0  0  0  0  0
   -3.8991    3.3982   -0.2207 C   0  0  0  0  0  0  0  0  0  0  0  0
   -3.4516    2.9545    0.8729 O   0  0  0  0  0  0  0  0  0  0  0  0
   -3.0693    4.2445   -1.0316 N   0  0  0  0  0  0  0  0  0  0  0  0
   -1.9186    4.9454   -0.4510 C   0  0  2  0  0  0  0  0  0  0  0  0
   -2.4126    5.9974    0.5096 C   0  0  0  0  0  0  0  0  0  0  0  0
   -3.2193    7.0850    0.0522 N   0  0  0  0  0  0  0  0  0  0  0  0
   -2.1341    5.9007    1.7347 O   0  0  0  0  0  0  0  0  0  0  0  0
   -1.0207    5.5527   -1.5522 C   0  0  0  0  0  0  0  0  0  0  0  0
    0.3269    6.6519   -0.9297 S   0  0  0  0  0  0  0  0  0  0  0  0
    1.2027    5.5305    0.2227 C   0  0  0  0  0  0  0  0  0  0  0  0
   10.5876   -1.1216    1.1978 H   0  0  0  0  0  0  0  0  0  0  0  0
   11.0926   -0.3594    2.7582 H   0  0  0  0  0  0  0  0  0  0  0  0
   10.0288   -1.8264    2.7700 H   0  0  0  0  0  0  0  0  0  0  0  0
    8.9312    0.1479    0.1005 H   0  0  0  0  0  0  0  0  0  0  0  0
    6.8081    1.0888   -0.1443 H   0  0  0  0  0  0  0  0  0  0  0  0
    8.3071    2.9772    0.3198 H   0  0  0  0  0  0  0  0  0  0  0  0
    8.0979    2.7754    2.0788 H   0  0  0  0  0  0  0  0  0  0  0  0
    6.2464    4.9467   -1.0559 H   0  0  0  0  0  0  0  0  0  0  0  0
    6.4526    3.1725   -1.2459 H   0  0  0  0  0  0  0  0  0  0  0  0
    3.9207    5.6673    0.0714 H   0  0  0  0  0  0  0  0  0  0  0  0
    0.5829    3.2140   -1.0775 H   0  0  0  0  0  0  0  0  0  0  0  0
    4.5847    1.9657   -2.0107 H   0  0  0  0  0  0  0  0  0  0  0  0
    2.8149    0.5014   -2.4801 H   0  0  0  0  0  0  0  0  0  0  0  0
    1.4893    1.4360   -3.2209 H   0  0  0  0  0  0  0  0  0  0  0  0
    1.1880    0.4563    1.2290 H   0  0  0  0  0  0  0  0  0  0  0  0
    2.6416    0.9739    0.3709 H   0  0  0  0  0  0  0  0  0  0  0  0
    2.9831   -1.1715    1.4973 H   0  0  0  0  0  0  0  0  0  0  0  0
    3.0013   -1.5826   -1.5297 H   0  0  0  0  0  0  0  0  0  0  0  0
    5.0496   -2.5645    1.0782 H   0  0  0  0  0  0  0  0  0  0  0  0
    7.4739   -1.5085   -0.4159 H   0  0  0  0  0  0  0  0  0  0  0  0
    7.6034   -2.3651    1.1815 H   0  0  0  0  0  0  0  0  0  0  0  0
    6.8481   -3.1733   -0.2369 H   0  0  0  0  0  0  0  0  0  0  0  0
    5.1600   -1.0172    2.6855 H   0  0  0  0  0  0  0  0  0  0  0  0
    1.2757   -3.5072   -1.1248 H   0  0  0  0  0  0  0  0  0  0  0  0
    2.3607   -4.4385    1.5894 H   0  0  0  0  0  0  0  0  0  0  0  0
    4.0043   -4.4101   -0.3304 H   0  0  0  0  0  0  0  0  0  0  0  0
    3.7293   -6.0455    0.3541 H   0  0  0  0  0  0  0  0  0  0  0  0
    2.9574   -5.5781   -1.2210 H   0  0  0  0  0  0  0  0  0  0  0  0
   -0.4621   -4.5630    1.8008 H   0  0  0  0  0  0  0  0  0  0  0  0
   -2.3695   -5.9212    0.9569 H   0  0  0  0  0  0  0  0  0  0  0  0
   -2.3979   -6.6339   -1.4470 H   0  0  0  0  0  0  0  0  0  0  0  0
   -1.1584   -7.5026   -0.4809 H   0  0  0  0  0  0  0  0  0  0  0  0
   -0.6624   -6.1681   -1.6030 H   0  0  0  0  0  0  0  0  0  0  0  0
   -3.5893   -2.6554   -0.0226 H   0  0  0  0  0  0  0  0  0  0  0  0
   -4.3650   -5.6161    0.0401 H   0  0  0  0  0  0  0  0  0  0  0  0
   -4.8994   -4.6925   -2.1065 H   0  0  0  0  0  0  0  0  0  0  0  0
   -6.4303   -4.8603   -1.1724 H   0  0  0  0  0  0  0  0  0  0  0  0
   -5.6570   -3.2297   -1.3908 H   0  0  0  0  0  0  0  0  0  0  0  0
   -7.4746   -4.0408    1.7731 H   0  0  0  0  0  0  0  0  0  0  0  0
   -5.7532   -1.7513    0.7400 H   0  0  0  0  0  0  0  0  0  0  0  0
   -8.1910   -1.7749    2.6379 H   0  0  0  0  0  0  0  0  0  0  0  0
   -6.4576   -1.5727    3.1114 H   0  0  0  0  0  0  0  0  0  0  0  0
   -7.2711   -0.3111    2.1218 H   0  0  0  0  0  0  0  0  0  0  0  0
   -7.9642   -1.0607   -2.0172 H   0  0  0  0  0  0  0  0  0  0  0  0
   -6.4098    0.4514    0.1091 H   0  0  0  0  0  0  0  0  0  0  0  0
   -8.9506    0.7179    0.3233 H   0  0  0  0  0  0  0  0  0  0  0  0
   -8.9651    1.4280   -1.3296 H   0  0  0  0  0  0  0  0  0  0  0  0
   -8.0807    2.2499    0.0159 H   0  0  0  0  0  0  0  0  0  0  0  0
   -4.7046    2.3149   -2.5509 H   0  0  0  0  0  0  0  0  0  0  0  0
   -5.7981    2.6102    0.2700 H   0  0  0  0  0  0  0  0  0  0  0  0
   -7.1544    4.0427   -1.2036 H   0  0  0  0  0  0  0  0  0  0  0  0
   -6.0666    5.0516   -0.1810 H   0  0  0  0  0  0  0  0  0  0  0  0
   -5.6883    4.7779   -1.9272 H   0  0  0  0  0  0  0  0  0  0  0  0
   -3.3831    4.4882   -1.9953 H   0  0  0  0  0  0  0  0  0  0  0  0
   -1.3266    4.1903    0.0977 H   0  0  0  0  0  0  0  0  0  0  0  0
   -3.6324    7.7547    0.7414 H   0  0  0  0  0  0  0  0  0  0  0  0
   -3.4268    7.2099   -0.9646 H   0  0  0  0  0  0  0  0  0  0  0  0
   -1.6463    6.1742   -2.2309 H   0  0  0  0  0  0  0  0  0  0  0  0
   -0.5962    4.7543   -2.1859 H   0  0  0  0  0  0  0  0  0  0  0  0
    1.7814    6.1770    0.9143 H   0  0  0  0  0  0  0  0  0  0  0  0
    0.5118    4.9713    0.8825 H   0  0  0  0  0  0  0  0  0  0  0  0
  1  2  1  0
  2  3  2  0
  2  4  1  0
  4  5  1  0
  5  6  1  0
  6  7  1  0
  7  8  1  0
  8  9  1  0
  9 10  1  0
 10 11  2  0
 11 12  1  0
 12 13  2  0
 13 14  1  0
 13 15  1  0
 15 16  1  0
 16 17  1  0
 17 18  1  0
 18 19  1  0
 19 20  1  0
 20 21  2  0
 20 22  1  0
 22 23  1  0
 22 24  1  0
 24 25  1  0
 25 26  2  0
 18 27  1  0
 27 28  2  0
 27 29  1  0
 29 30  1  0
 30 31  1  0
 30 32  1  0
 32 33  2  0
 32 34  1  0
 34 35  1  0
 35 36  1  0
 35 37  1  0
 37 38  2  0
 37 39  1  0
 39 40  1  0
 40 41  1  0
 40 42  1  0
 42 43  2  0
 42 44  1  0
 44 45  1  0
 45 46  1  0
 45 47  1  0
 47 48  2  0
 47 49  1  0
 49 50  1  0
 50 51  1  0
 50 52  1  0
 52 53  2  0
 52 54  1  0
 54 55  1  0
 55 56  1  0
 55 57  1  0
 57 58  2  0
 57 59  1  0
 59 60  1  0
 60 61  1  0
 61 62  1  0
 61 63  2  0
 60 64  1  0
 64 65  1  0
 65 66  1  0
 25  5  1  0
 14  9  2  0
 66 11  1  0
  1 67  1  0
  1 68  1  0
  1 69  1  0
  4 70  1  0
  5 71  1  6
  6 72  1  0
  6 73  1  0
  8 74  1  0
  8 75  1  0
 10 76  1  0
 12 77  1  0
 14 78  1  0
 15 79  1  0
 15 80  1  0
 17 81  1  0
 17 82  1  0
 18 83  1  1
 19 84  1  0
 22 85  1  1
 23 86  1  0
 23 87  1  0
 23 88  1  0
 24 89  1  0
 29 90  1  0
 30 91  1  1
 31 92  1  0
 31 93  1  0
 31 94  1  0
 34 95  1  0
 35 96  1  1
 36 97  1  0
 36 98  1  0
 36 99  1  0
 39100  1  0
 40101  1  1
 41102  1  0
 41103  1  0
 41104  1  0
 44105  1  0
 45106  1  6
 46107  1  0
 46108  1  0
 46109  1  0
 49110  1  0
 50111  1  1
 51112  1  0
 51113  1  0
 51114  1  0
 54115  1  0
 55116  1  1
 56117  1  0
 56118  1  0
 56119  1  0
 59120  1  0
 60121  1  1
 62122  1  0
 62123  1  0
 64124  1  0
 64125  1  0
 66126  1  0
 66127  1  0
M  END
