
     RDKit          3D

217219  0  0  0  0  0  0  0  0999 V2000
   -4.8949    8.7429   -2.2679 C   0  0  0  0  0  0  0  0  0  0  0  0
   -4.7579    8.0800   -0.9349 C   0  0  0  0  0  0  0  0  0  0  0  0
   -4.3168    8.7444    0.0412 O   0  0  0  0  0  0  0  0  0  0  0  0
   -5.1505    6.7082   -0.7751 N   0  0  0  0  0  0  0  0  0  0  0  0
   -5.0481    6.0122    0.5120 C   0  0  2  0  0  0  0  0  0  0  0  0
   -3.5736    5.7148    0.8370 C   0  0  0  0  0  0  0  0  0  0  0  0
   -3.4196    4.8135    2.4293 S   0  0  0  0  0  0  0  0  0  0  0  0
   -1.5939    4.6763    2.4154 C   0  0  0  0  0  0  0  0  0  0  0  0
   -1.1123    3.8221    1.2699 C   0  0  0  0  0  0  0  0  0  0  0  0
   -1.5058    2.4792    1.1876 C   0  0  0  0  0  0  0  0  0  0  0  0
   -1.0887    1.6795    0.1102 C   0  0  0  0  0  0  0  0  0  0  0  0
   -0.2421    2.2235   -0.8663 C   0  0  0  0  0  0  0  0  0  0  0  0
    0.1658    3.5656   -0.7902 C   0  0  0  0  0  0  0  0  0  0  0  0
   -0.2730    4.3622    0.2838 C   0  0  0  0  0  0  0  0  0  0  0  0
    1.0841    4.1344   -1.8331 C   0  0  0  0  0  0  0  0  0  0  0  0
    2.7530    3.4042   -1.6634 S   0  0  0  0  0  0  0  0  0  0  0  0
    3.4173    4.5795   -0.4208 C   0  0  0  0  0  0  0  0  0  0  0  0
    4.4754    5.4863   -1.0624 C   0  0  1  0  0  0  0  0  0  0  0  0
    3.8302    6.5197   -1.9512 C   0  0  0  0  0  0  0  0  0  0  0  0
    2.9705    7.5263   -1.4150 N   0  0  0  0  0  0  0  0  0  0  0  0
    4.0638    6.5020   -3.1908 O   0  0  0  0  0  0  0  0  0  0  0  0
    5.2916    6.1343   -0.0325 N   0  0  0  0  0  0  0  0  0  0  0  0
    6.6642    5.7859    0.1560 C   0  0  0  0  0  0  0  0  0  0  0  0
    7.5518    6.6331   -0.1275 O   0  0  0  0  0  0  0  0  0  0  0  0
    7.0356    4.4524    0.7552 C   0  0  1  0  0  0  0  0  0  0  0  0
    7.2710    3.3616   -0.2982 C   0  0  0  0  0  0  0  0  0  0  0  0
    8.1302    4.5755    1.7426 N   0  0  0  0  0  0  0  0  0  0  0  0
    9.5599    4.5473    1.5329 C   0  0  0  0  0  0  0  0  0  0  0  0
   10.2907    4.2496    2.5150 O   0  0  0  0  0  0  0  0  0  0  0  0
   10.2394    4.9796    0.2508 C   0  0  1  0  0  0  0  0  0  0  0  0
   10.6942    6.4413    0.3739 C   0  0  0  0  0  0  0  0  0  0  0  0
   11.4055    4.1231   -0.0134 N   0  0  0  0  0  0  0  0  0  0  0  0
   11.3026    2.6995   -0.2021 C   0  0  0  0  0  0  0  0  0  0  0  0
   10.2300    2.2149   -0.6549 O   0  0  0  0  0  0  0  0  0  0  0  0
   12.4177    1.7457    0.1716 C   0  0  1  0  0  0  0  0  0  0  0  0
   13.7504    2.4492    0.4603 C   0  0  0  0  0  0  0  0  0  0  0  0
   12.0124    0.9812    1.3552 N   0  0  0  0  0  0  0  0  0  0  0  0
   11.9014   -0.4541    1.4474 C   0  0  0  0  0  0  0  0  0  0  0  0
   11.2631   -0.9394    2.4200 O   0  0  0  0  0  0  0  0  0  0  0  0
   12.5606   -1.4017    0.4567 C   0  0  1  0  0  0  0  0  0  0  0  0
   14.0820   -1.2043    0.4207 C   0  0  0  0  0  0  0  0  0  0  0  0
   12.2937   -2.7971    0.8346 N   0  0  0  0  0  0  0  0  0  0  0  0
   11.8666   -3.7883   -0.1086 C   0  0  0  0  0  0  0  0  0  0  0  0
   12.5219   -4.8626   -0.1911 O   0  0  0  0  0  0  0  0  0  0  0  0
   10.6208   -3.5850   -0.9437 C   0  0  1  0  0  0  0  0  0  0  0  0
   10.3759   -4.7053   -1.9621 C   0  0  0  0  0  0  0  0  0  0  0  0
    9.4457   -3.3647   -0.0839 N   0  0  0  0  0  0  0  0  0  0  0  0
    9.0749   -4.2076    1.0192 C   0  0  0  0  0  0  0  0  0  0  0  0
    9.0379   -3.7205    2.1780 O   0  0  0  0  0  0  0  0  0  0  0  0
    8.6744   -5.6473    0.8143 C   0  0  1  0  0  0  0  0  0  0  0  0
    9.7673   -6.5873    1.3286 C   0  0  0  0  0  0  0  0  0  0  0  0
    7.4133   -5.9192    1.5165 N   0  0  0  0  0  0  0  0  0  0  0  0
    6.1015   -5.7528    0.9497 C   0  0  0  0  0  0  0  0  0  0  0  0
    5.1282   -6.3253    1.5081 O   0  0  0  0  0  0  0  0  0  0  0  0
    5.8578   -4.9044   -0.2784 C   0  0  1  0  0  0  0  0  0  0  0  0
    5.8245   -5.8000   -1.5310 C   0  0  0  0  0  0  0  0  0  0  0  0
    4.6127   -4.1362   -0.0988 N   0  0  0  0  0  0  0  0  0  0  0  0
    3.4676   -4.2427   -0.9571 C   0  0  0  0  0  0  0  0  0  0  0  0
    3.5252   -3.7708   -2.1239 O   0  0  0  0  0  0  0  0  0  0  0  0
    2.2893   -5.0833   -0.5313 C   0  0  1  0  0  0  0  0  0  0  0  0
    1.8311   -4.7694    0.8940 C   0  0  0  0  0  0  0  0  0  0  0  0
    1.1837   -5.0042   -1.5030 N   0  0  0  0  0  0  0  0  0  0  0  0
    0.4980   -3.7965   -1.8826 C   0  0  0  0  0  0  0  0  0  0  0  0
    0.5084   -3.4537   -3.0943 O   0  0  0  0  0  0  0  0  0  0  0  0
   -0.3172   -2.9977   -0.8998 C   0  0  1  0  0  0  0  0  0  0  0  0
    0.3752   -1.6484   -0.6207 C   0  0  0  0  0  0  0  0  0  0  0  0
   -0.3247   -0.8375    0.8661 S   0  0  0  0  0  0  0  0  0  0  0  0
   -1.5311    0.2452    0.0167 C   0  0  0  0  0  0  0  0  0  0  0  0
   -1.6624   -2.7768   -1.4425 N   0  0  0  0  0  0  0  0  0  0  0  0
   -2.8572   -3.2088   -0.7723 C   0  0  0  0  0  0  0  0  0  0  0  0
   -3.6680   -2.3459   -0.3479 O   0  0  0  0  0  0  0  0  0  0  0  0
   -3.2085   -4.6787   -0.6214 C   0  0  1  0  0  0  0  0  0  0  0  0
   -2.3729   -5.5873   -1.5262 C   0  0  0  0  0  0  0  0  0  0  0  0
   -3.0733   -5.0948    0.7802 N   0  0  0  0  0  0  0  0  0  0  0  0
   -3.6353   -6.2944    1.3450 C   0  0  0  0  0  0  0  0  0  0  0  0
   -3.2444   -6.6595    2.4933 O   0  0  0  0  0  0  0  0  0  0  0  0
   -4.7402   -7.0899    0.6745 C   0  0  1  0  0  0  0  0  0  0  0  0
   -4.4655   -8.5985    0.7705 C   0  0  0  0  0  0  0  0  0  0  0  0
   -6.0244   -6.7826    1.3032 N   0  0  0  0  0  0  0  0  0  0  0  0
   -7.3044   -7.0584    0.7069 C   0  0  0  0  0  0  0  0  0  0  0  0
   -8.2506   -7.4410    1.4510 O   0  0  0  0  0  0  0  0  0  0  0  0
   -7.5736   -6.8297   -0.7663 C   0  0  1  0  0  0  0  0  0  0  0  0
   -7.9158   -8.1623   -1.4490 C   0  0  0  0  0  0  0  0  0  0  0  0
   -8.6801   -5.8811   -0.9246 N   0  0  0  0  0  0  0  0  0  0  0  0
   -8.7004   -4.6030   -0.2675 C   0  0  0  0  0  0  0  0  0  0  0  0
   -7.6186   -4.0787    0.1206 O   0  0  0  0  0  0  0  0  0  0  0  0
  -10.0051   -3.8674   -0.0658 C   0  0  1  0  0  0  0  0  0  0  0  0
  -11.1322   -4.8389    0.3100 C   0  0  0  0  0  0  0  0  0  0  0  0
   -9.8623   -2.8665    1.0004 N   0  0  0  0  0  0  0  0  0  0  0  0
   -9.7371   -1.4681    0.7141 C   0  0  0  0  0  0  0  0  0  0  0  0
   -8.5984   -0.9338    0.7926 O   0  0  0  0  0  0  0  0  0  0  0  0
  -10.9327   -0.5900    0.4184 C   0  0  1  0  0  0  0  0  0  0  0  0
  -12.2176   -1.4021    0.1936 C   0  0  0  0  0  0  0  0  0  0  0  0
  -11.1528    0.3280    1.5348 N   0  0  0  0  0  0  0  0  0  0  0  0
  -11.4595    1.7290    1.4287 C   0  0  0  0  0  0  0  0  0  0  0  0
  -11.6659    2.3740    2.4979 O   0  0  0  0  0  0  0  0  0  0  0  0
  -11.5163    2.4737    0.1067 C   0  0  1  0  0  0  0  0  0  0  0  0
  -12.7030    2.0176   -0.7504 C   0  0  0  0  0  0  0  0  0  0  0  0
  -11.6587    3.9156    0.3398 N   0  0  0  0  0  0  0  0  0  0  0  0
  -10.9392    4.9279   -0.3842 C   0  0  0  0  0  0  0  0  0  0  0  0
  -11.5217    6.0174   -0.6377 O   0  0  0  0  0  0  0  0  0  0  0  0
   -9.5099    4.7373   -0.8249 C   0  0  1  0  0  0  0  0  0  0  0  0
   -9.4670    4.2948   -2.2918 C   0  0  0  0  0  0  0  0  0  0  0  0
   -8.7724    5.9987   -0.6666 N   0  0  0  0  0  0  0  0  0  0  0  0
   -8.3438    6.5383    0.5966 C   0  0  0  0  0  0  0  0  0  0  0  0
   -8.3123    7.7943    0.7368 O   0  0  0  0  0  0  0  0  0  0  0  0
   -7.8925    5.6797    1.7556 C   0  0  1  0  0  0  0  0  0  0  0  0
   -9.0869    5.1606    2.5693 C   0  0  0  0  0  0  0  0  0  0  0  0
   -7.0501    4.5640    1.2830 N   0  0  0  0  0  0  0  0  0  0  0  0
   -5.8717    4.7403    0.4740 C   0  0  0  0  0  0  0  0  0  0  0  0
   -5.5081    3.7964   -0.2816 O   0  0  0  0  0  0  0  0  0  0  0  0
   -4.5242    9.7927   -2.2235 H   0  0  0  0  0  0  0  0  0  0  0  0
   -4.3079    8.1928   -3.0388 H   0  0  0  0  0  0  0  0  0  0  0  0
   -5.9677    8.7591   -2.5610 H   0  0  0  0  0  0  0  0  0  0  0  0
   -5.5546    6.2149   -1.6038 H   0  0  0  0  0  0  0  0  0  0  0  0
   -5.4265    6.6866    1.3043 H   0  0  0  0  0  0  0  0  0  0  0  0
   -3.0147    6.6695    0.9265 H   0  0  0  0  0  0  0  0  0  0  0  0
   -3.1198    5.1279    0.0120 H   0  0  0  0  0  0  0  0  0  0  0  0
   -1.2758    4.2143    3.3741 H   0  0  0  0  0  0  0  0  0  0  0  0
   -1.1519    5.6946    2.3756 H   0  0  0  0  0  0  0  0  0  0  0  0
   -2.1562    2.0654    1.9534 H   0  0  0  0  0  0  0  0  0  0  0  0
    0.1021    1.6010   -1.6866 H   0  0  0  0  0  0  0  0  0  0  0  0
    0.0431    5.3983    0.3570 H   0  0  0  0  0  0  0  0  0  0  0  0
    0.6935    3.8750   -2.8417 H   0  0  0  0  0  0  0  0  0  0  0  0
    1.1292    5.2449   -1.7848 H   0  0  0  0  0  0  0  0  0  0  0  0
    3.8915    3.9700    0.3752 H   0  0  0  0  0  0  0  0  0  0  0  0
    2.6117    5.1720    0.0643 H   0  0  0  0  0  0  0  0  0  0  0  0
    5.1287    4.8493   -1.6937 H   0  0  0  0  0  0  0  0  0  0  0  0
    2.7598    7.5820   -0.3922 H   0  0  0  0  0  0  0  0  0  0  0  0
    2.5210    8.2252   -2.0481 H   0  0  0  0  0  0  0  0  0  0  0  0
    4.9378    7.0064    0.4297 H   0  0  0  0  0  0  0  0  0  0  0  0
    6.1407    4.1216    1.3293 H   0  0  0  0  0  0  0  0  0  0  0  0
    6.2912    3.0130   -0.6940 H   0  0  0  0  0  0  0  0  0  0  0  0
    7.8604    3.7266   -1.1611 H   0  0  0  0  0  0  0  0  0  0  0  0
    7.7738    2.4921    0.1683 H   0  0  0  0  0  0  0  0  0  0  0  0
    7.8268    4.5783    2.7423 H   0  0  0  0  0  0  0  0  0  0  0  0
    9.5553    4.9195   -0.6070 H   0  0  0  0  0  0  0  0  0  0  0  0
   11.4860    6.5414    1.1499 H   0  0  0  0  0  0  0  0  0  0  0  0
    9.8521    7.1099    0.6544 H   0  0  0  0  0  0  0  0  0  0  0  0
   11.1059    6.7898   -0.6004 H   0  0  0  0  0  0  0  0  0  0  0  0
   12.3546    4.5664   -0.0283 H   0  0  0  0  0  0  0  0  0  0  0  0
   12.5732    1.0735   -0.6954 H   0  0  0  0  0  0  0  0  0  0  0  0
   13.6410    3.1839    1.2839 H   0  0  0  0  0  0  0  0  0  0  0  0
   14.1258    2.9593   -0.4498 H   0  0  0  0  0  0  0  0  0  0  0  0
   14.5132    1.7157    0.7873 H   0  0  0  0  0  0  0  0  0  0  0  0
   11.7172    1.5307    2.1957 H   0  0  0  0  0  0  0  0  0  0  0  0
   12.1580   -1.1964   -0.5538 H   0  0  0  0  0  0  0  0  0  0  0  0
   14.4937   -1.0806    1.4464 H   0  0  0  0  0  0  0  0  0  0  0  0
   14.3523   -0.3278   -0.1973 H   0  0  0  0  0  0  0  0  0  0  0  0
   14.5743   -2.0833   -0.0459 H   0  0  0  0  0  0  0  0  0  0  0  0
   12.7006   -3.1454    1.7326 H   0  0  0  0  0  0  0  0  0  0  0  0
   10.7713   -2.6662   -1.5497 H   0  0  0  0  0  0  0  0  0  0  0  0
   10.4132   -5.7085   -1.4914 H   0  0  0  0  0  0  0  0  0  0  0  0
   11.1661   -4.6781   -2.7419 H   0  0  0  0  0  0  0  0  0  0  0  0
    9.3893   -4.5699   -2.4563 H   0  0  0  0  0  0  0  0  0  0  0  0
    9.0685   -2.3914   -0.0633 H   0  0  0  0  0  0  0  0  0  0  0  0
    8.5324   -5.8489   -0.2684 H   0  0  0  0  0  0  0  0  0  0  0  0
   10.7437   -6.3707    0.8445 H   0  0  0  0  0  0  0  0  0  0  0  0
    9.8913   -6.4841    2.4294 H   0  0  0  0  0  0  0  0  0  0  0  0
    9.4927   -7.6425    1.0994 H   0  0  0  0  0  0  0  0  0  0  0  0
    7.4611   -6.2894    2.4941 H   0  0  0  0  0  0  0  0  0  0  0  0
    6.6846   -4.1770   -0.3975 H   0  0  0  0  0  0  0  0  0  0  0  0
    4.9711   -6.5091   -1.4892 H   0  0  0  0  0  0  0  0  0  0  0  0
    5.7454   -5.1721   -2.4399 H   0  0  0  0  0  0  0  0  0  0  0  0
    6.7618   -6.3893   -1.6160 H   0  0  0  0  0  0  0  0  0  0  0  0
    4.5227   -3.5426    0.7576 H   0  0  0  0  0  0  0  0  0  0  0  0
    2.6442   -6.1392   -0.5270 H   0  0  0  0  0  0  0  0  0  0  0  0
    0.8696   -5.2881    1.1044 H   0  0  0  0  0  0  0  0  0  0  0  0
    2.5839   -5.1471    1.6174 H   0  0  0  0  0  0  0  0  0  0  0  0
    1.7181   -3.6763    1.0567 H   0  0  0  0  0  0  0  0  0  0  0  0
    1.1007   -5.8077   -2.1627 H   0  0  0  0  0  0  0  0  0  0  0  0
   -0.4058   -3.5626    0.0512 H   0  0  0  0  0  0  0  0  0  0  0  0
    1.4524   -1.8247   -0.4110 H   0  0  0  0  0  0  0  0  0  0  0  0
    0.3330   -0.9830   -1.5081 H   0  0  0  0  0  0  0  0  0  0  0  0
   -1.6832   -0.0311   -1.0461 H   0  0  0  0  0  0  0  0  0  0  0  0
   -2.5142    0.1175    0.5120 H   0  0  0  0  0  0  0  0  0  0  0  0
   -1.7743   -2.1391   -2.2598 H   0  0  0  0  0  0  0  0  0  0  0  0
   -4.2758   -4.7609   -0.9233 H   0  0  0  0  0  0  0  0  0  0  0  0
   -2.3191   -5.1820   -2.5588 H   0  0  0  0  0  0  0  0  0  0  0  0
   -2.8213   -6.6008   -1.5876 H   0  0  0  0  0  0  0  0  0  0  0  0
   -1.3529   -5.7084   -1.1117 H   0  0  0  0  0  0  0  0  0  0  0  0
   -2.4262   -4.5461    1.3921 H   0  0  0  0  0  0  0  0  0  0  0  0
   -4.7787   -6.8509   -0.3991 H   0  0  0  0  0  0  0  0  0  0  0  0
   -4.2607   -8.9047    1.8163 H   0  0  0  0  0  0  0  0  0  0  0  0
   -5.3393   -9.1780    0.4123 H   0  0  0  0  0  0  0  0  0  0  0  0
   -3.5953   -8.8722    0.1390 H   0  0  0  0  0  0  0  0  0  0  0  0
   -6.0239   -6.6317    2.3397 H   0  0  0  0  0  0  0  0  0  0  0  0
   -6.6842   -6.3990   -1.2754 H   0  0  0  0  0  0  0  0  0  0  0  0
   -8.8580   -8.5788   -1.0294 H   0  0  0  0  0  0  0  0  0  0  0  0
   -7.0935   -8.8992   -1.3096 H   0  0  0  0  0  0  0  0  0  0  0  0
   -8.0577   -7.9986   -2.5417 H   0  0  0  0  0  0  0  0  0  0  0  0
   -9.4297   -6.0838   -1.6305 H   0  0  0  0  0  0  0  0  0  0  0  0
  -10.2608   -3.3709   -1.0260 H   0  0  0  0  0  0  0  0  0  0  0  0
  -12.0592   -4.2886    0.5596 H   0  0  0  0  0  0  0  0  0  0  0  0
  -10.8439   -5.4513    1.1882 H   0  0  0  0  0  0  0  0  0  0  0  0
  -11.3716   -5.5112   -0.5393 H   0  0  0  0  0  0  0  0  0  0  0  0
   -9.5839   -3.1931    1.9525 H   0  0  0  0  0  0  0  0  0  0  0  0
  -10.6980   -0.0354   -0.5083 H   0  0  0  0  0  0  0  0  0  0  0  0
  -12.4349   -2.0402    1.0743 H   0  0  0  0  0  0  0  0  0  0  0  0
  -13.0876   -0.7283    0.0536 H   0  0  0  0  0  0  0  0  0  0  0  0
  -12.1308   -2.0196   -0.7222 H   0  0  0  0  0  0  0  0  0  0  0  0
  -11.1617   -0.0881    2.4956 H   0  0  0  0  0  0  0  0  0  0  0  0
  -10.5760    2.2661   -0.4391 H   0  0  0  0  0  0  0  0  0  0  0  0
  -12.9036    2.7681   -1.5440 H   0  0  0  0  0  0  0  0  0  0  0  0
  -12.4883    1.0694   -1.2762 H   0  0  0  0  0  0  0  0  0  0  0  0
  -13.6196    1.9043   -0.1293 H   0  0  0  0  0  0  0  0  0  0  0  0
  -12.5077    4.2320    0.8641 H   0  0  0  0  0  0  0  0  0  0  0  0
   -9.0286    3.9453   -0.2200 H   0  0  0  0  0  0  0  0  0  0  0  0
   -9.9453    3.3004   -2.4174 H   0  0  0  0  0  0  0  0  0  0  0  0
   -8.4123    4.2163   -2.6346 H   0  0  0  0  0  0  0  0  0  0  0  0
  -10.0031    5.0254   -2.9392 H   0  0  0  0  0  0  0  0  0  0  0  0
   -8.7931    6.6708   -1.4715 H   0  0  0  0  0  0  0  0  0  0  0  0
   -7.2872    6.3032    2.4517 H   0  0  0  0  0  0  0  0  0  0  0  0
   -9.5887    4.3259    2.0474 H   0  0  0  0  0  0  0  0  0  0  0  0
   -9.8223    5.9731    2.7357 H   0  0  0  0  0  0  0  0  0  0  0  0
   -8.7403    4.7900    3.5546 H   0  0  0  0  0  0  0  0  0  0  0  0
   -7.3374    3.5845    1.4795 H   0  0  0  0  0  0  0  0  0  0  0  0
  1  2  1  0
  2  3  2  0
  2  4  1  0
  4  5  1  0
  5  6  1  0
  6  7  1  0
  7  8  1  0
  8  9  1  0
  9 10  2  0
 10 11  1  0
 11 12  2  0
 12 13  1  0
 13 14  2  0
 13 15  1  0
 15 16  1  0
 16 17  1  0
 17 18  1  0
 18 19  1  0
 19 20  1  0
 19 21  2  0
 18 22  1  0
 22 23  1  0
 23 24  2  0
 23 25  1  0
 25 26  1  0
 25 27  1  0
 27 28  1  0
 28 29  2  0
 28 30  1  0
 30 31  1  0
 30 32  1  0
 32 33  1  0
 33 34  2  0
 33 35  1  0
 35 36  1  0
 35 37  1  0
 37 38  1  0
 38 39  2  0
 38 40  1  0
 40 41  1  0
 40 42  1  0
 42 43  1  0
 43 44  2  0
 43 45  1  0
 45 46  1  0
 45 47  1  0
 47 48  1  0
 48 49  2  0
 48 50  1  0
 50 51  1  0
 50 52  1  0
 52 53  1  0
 53 54  2  0
 53 55  1  0
 55 56  1  0
 55 57  1  0
 57 58  1  0
 58 59  2  0
 58 60  1  0
 60 61  1  0
 60 62  1  0
 62 63  1  0
 63 64  2  0
 63 65  1  0
 65 66  1  0
 66 67  1  0
 67 68  1  0
 65 69  1  0
 69 70  1  0
 70 71  2  0
 70 72  1  0
 72 73  1  0
 72 74  1  0
 74 75  1  0
 75 76  2  0
 75 77  1  0
 77 78  1  0
 77 79  1  0
 79 80  1  0
 80 81  2  0
 80 82  1  0
 82 83  1  0
 82 84  1  0
 84 85  1  0
 85 86  2  0
 85 87  1  0
 87 88  1  0
 87 89  1  0
 89 90  1  0
 90 91  2  0
 90 92  1  0
 92 93  1  0
 92 94  1  0
 94 95  1  0
 95 96  2  0
 95 97  1  0
 97 98  1  0
 97 99  1  0
 99100  1  0
100101  2  0
100102  1  0
102103  1  0
102104  1  0
104105  1  0
105106  2  0
105107  1  0
107108  1  0
107109  1  0
109110  1  0
110111  2  0
110  5  1  0
 14  9  1  0
 68 11  1  0
  1112  1  0
  1113  1  0
  1114  1  0
  4115  1  0
  5116  1  1
  6117  1  0
  6118  1  0
  8119  1  0
  8120  1  0
 10121  1  0
 12122  1  0
 14123  1  0
 15124  1  0
 15125  1  0
 17126  1  0
 17127  1  0
 18128  1  6
 20129  1  0
 20130  1  0
 22131  1  0
 25132  1  1
 26133  1  0
 26134  1  0
 26135  1  0
 27136  1  0
 30137  1  6
 31138  1  0
 31139  1  0
 31140  1  0
 32141  1  0
 35142  1  6
 36143  1  0
 36144  1  0
 36145  1  0
 37146  1  0
 40147  1  6
 41148  1  0
 41149  1  0
 41150  1  0
 42151  1  0
 45152  1  6
 46153  1  0
 46154  1  0
 46155  1  0
 47156  1  0
 50157  1  6
 51158  1  0
 51159  1  0
 51160  1  0
 52161  1  0
 55162  1  6
 56163  1  0
 56164  1  0
 56165  1  0
 57166  1  0
 60167  1  1
 61168  1  0
 61169  1  0
 61170  1  0
 62171  1  0
 65172  1  1
 66173  1  0
 66174  1  0
 68175  1  0
 68176  1  0
 69177  1  0
 72178  1  6
 73179  1  0
 73180  1  0
 73181  1  0
 74182  1  0
 77183  1  6
 78184  1  0
 78185  1  0
 78186  1  0
 79187  1  0
 82188  1  6
 83189  1  0
 83190  1  0
 83191  1  0
 84192  1  0
 87193  1  6
 88194  1  0
 88195  1  0
 88196  1  0
 89197  1  0
 92198  1  6
 93199  1  0
 93200  1  0
 93201  1  0
 94202  1  0
 97203  1  6
 98204  1  0
 98205  1  0
 98206  1  0
 99207  1  0
102208  1  1
103209  1  0
103210  1  0
103211  1  0
104212  1  0
107213  1  1
108214  1  0
108215  1  0
108216  1  0
109217  1  0
M  END
