
     RDKit          3D

127129  0  0  0  0  0  0  0  0999 V2000
  -10.5125   -0.9407   -0.6644 C   0  0  0  0  0  0  0  0  0  0  0  0
   -9.3617   -0.2049   -1.2791 C   0  0  0  0  0  0  0  0  0  0  0  0
   -9.1701   -0.2812   -2.5241 O   0  0  0  0  0  0  0  0  0  0  0  0
   -8.4749    0.5640   -0.4483 N   0  0  0  0  0  0  0  0  0  0  0  0
   -7.3302    1.2974   -0.9997 C   0  0  1  0  0  0  0  0  0  0  0  0
   -6.6860    2.2479    0.0413 C   0  0  0  0  0  0  0  0  0  0  0  0
   -6.0612    3.7854   -0.7397 S   0  0  0  0  0  0  0  0  0  0  0  0
   -4.3823    3.1939   -1.1373 C   0  0  0  0  0  0  0  0  0  0  0  0
   -3.4709    3.3407    0.0497 C   0  0  0  0  0  0  0  0  0  0  0  0
   -3.1199    4.6132    0.5145 C   0  0  0  0  0  0  0  0  0  0  0  0
   -2.1737    4.7565    1.5445 C   0  0  0  0  0  0  0  0  0  0  0  0
   -1.6706    3.6136    2.2003 C   0  0  0  0  0  0  0  0  0  0  0  0
   -2.0424    2.3280    1.7602 C   0  0  0  0  0  0  0  0  0  0  0  0
   -2.9114    2.2084    0.6599 C   0  0  0  0  0  0  0  0  0  0  0  0
   -1.3899    1.1010    2.3425 C   0  0  0  0  0  0  0  0  0  0  0  0
   -2.6456   -0.1384    2.8913 S   0  0  0  0  0  0  0  0  0  0  0  0
   -2.0086   -1.6084    1.9920 C   0  0  0  0  0  0  0  0  0  0  0  0
   -2.8805   -1.9228    0.7571 C   0  0  2  0  0  0  0  0  0  0  0  0
   -4.0409   -2.7512    1.1218 N   0  0  0  0  0  0  0  0  0  0  0  0
   -5.2848   -2.7303    0.3941 C   0  0  0  0  0  0  0  0  0  0  0  0
   -5.7256   -3.8093   -0.0828 O   0  0  0  0  0  0  0  0  0  0  0  0
   -6.1146   -1.4723    0.2518 C   0  0  1  0  0  0  0  0  0  0  0  0
   -6.1654   -0.7621    1.6108 C   0  0  0  0  0  0  0  0  0  0  0  0
   -5.5692   -0.6180   -0.8188 N   0  0  0  0  0  0  0  0  0  0  0  0
   -6.3146    0.3495   -1.5887 C   0  0  0  0  0  0  0  0  0  0  0  0
   -6.0521    0.4599   -2.8201 O   0  0  0  0  0  0  0  0  0  0  0  0
   -2.0545   -2.6032   -0.3079 C   0  0  0  0  0  0  0  0  0  0  0  0
   -1.1415   -1.9534   -0.8962 O   0  0  0  0  0  0  0  0  0  0  0  0
   -2.2789   -3.9760   -0.6413 N   0  0  0  0  0  0  0  0  0  0  0  0
   -1.1778   -4.8913   -0.9729 C   0  0  2  0  0  0  0  0  0  0  0  0
   -1.6920   -6.3327   -1.0400 C   0  0  0  0  0  0  0  0  0  0  0  0
   -0.0754   -4.7936    0.0424 C   0  0  0  0  0  0  0  0  0  0  0  0
   -0.2764   -5.1603    1.2336 O   0  0  0  0  0  0  0  0  0  0  0  0
    1.2080   -4.2818   -0.3461 N   0  0  0  0  0  0  0  0  0  0  0  0
    2.4694   -4.9845   -0.1168 C   0  0  2  0  0  0  0  0  0  0  0  0
    2.3412   -6.4815   -0.4282 C   0  0  0  0  0  0  0  0  0  0  0  0
    2.9621   -4.7582    1.2990 C   0  0  0  0  0  0  0  0  0  0  0  0
    2.3087   -5.2499    2.2622 O   0  0  0  0  0  0  0  0  0  0  0  0
    4.1626   -4.0212    1.5982 N   0  0  0  0  0  0  0  0  0  0  0  0
    5.3042   -3.8501    0.6807 C   0  0  2  0  0  0  0  0  0  0  0  0
    5.8733   -5.2194    0.2676 C   0  0  0  0  0  0  0  0  0  0  0  0
    6.4065   -3.0601    1.3608 C   0  0  0  0  0  0  0  0  0  0  0  0
    6.8075   -3.4452    2.4895 O   0  0  0  0  0  0  0  0  0  0  0  0
    7.0339   -1.9077    0.7676 N   0  0  0  0  0  0  0  0  0  0  0  0
    6.8369   -1.4305   -0.6095 C   0  0  2  0  0  0  0  0  0  0  0  0
    7.3749   -2.4413   -1.6271 C   0  0  0  0  0  0  0  0  0  0  0  0
    7.5518   -0.1163   -0.7951 C   0  0  0  0  0  0  0  0  0  0  0  0
    8.7965   -0.0416   -0.6017 O   0  0  0  0  0  0  0  0  0  0  0  0
    6.8374    1.0470   -1.2300 N   0  0  0  0  0  0  0  0  0  0  0  0
    6.4699    2.1435   -0.3320 C   0  0  2  0  0  0  0  0  0  0  0  0
    7.7164    2.8762    0.1789 C   0  0  0  0  0  0  0  0  0  0  0  0
    5.6248    1.6297    0.8111 C   0  0  0  0  0  0  0  0  0  0  0  0
    6.1410    0.8555    1.6657 O   0  0  0  0  0  0  0  0  0  0  0  0
    4.2338    1.9494    0.9262 N   0  0  0  0  0  0  0  0  0  0  0  0
    3.7021    3.3015    0.7249 C   0  0  2  0  0  0  0  0  0  0  0  0
    3.1559    3.8261    2.0523 C   0  0  0  0  0  0  0  0  0  0  0  0
    2.6469    3.2714   -0.3592 C   0  0  0  0  0  0  0  0  0  0  0  0
    2.8320    2.5799   -1.4022 O   0  0  0  0  0  0  0  0  0  0  0  0
    1.4451    4.0391   -0.2325 N   0  0  0  0  0  0  0  0  0  0  0  0
    1.2678    5.3249   -0.9191 C   0  0  2  0  0  0  0  0  0  0  0  0
    2.5285    6.1577   -0.8775 C   0  0  0  0  0  0  0  0  0  0  0  0
    3.5052    6.0333   -1.9132 N   0  0  0  0  0  0  0  0  0  0  0  0
    2.7475    6.9459    0.0827 O   0  0  0  0  0  0  0  0  0  0  0  0
    0.0490    6.0722   -0.3327 C   0  0  0  0  0  0  0  0  0  0  0  0
    0.1581    6.2134    1.5043 S   0  0  0  0  0  0  0  0  0  0  0  0
   -1.6320    6.1262    1.8663 C   0  0  0  0  0  0  0  0  0  0  0  0
  -11.0379   -1.5429   -1.4384 H   0  0  0  0  0  0  0  0  0  0  0  0
  -11.2246   -0.2135   -0.2251 H   0  0  0  0  0  0  0  0  0  0  0  0
  -10.1322   -1.6148    0.1316 H   0  0  0  0  0  0  0  0  0  0  0  0
   -8.7571    0.6753    0.5487 H   0  0  0  0  0  0  0  0  0  0  0  0
   -7.7312    1.9368   -1.8201 H   0  0  0  0  0  0  0  0  0  0  0  0
   -7.4508    2.5690    0.7782 H   0  0  0  0  0  0  0  0  0  0  0  0
   -5.8662    1.7658    0.6053 H   0  0  0  0  0  0  0  0  0  0  0  0
   -3.9916    3.8021   -1.9735 H   0  0  0  0  0  0  0  0  0  0  0  0
   -4.4038    2.1515   -1.5006 H   0  0  0  0  0  0  0  0  0  0  0  0
   -3.5097    5.4844    0.0023 H   0  0  0  0  0  0  0  0  0  0  0  0
   -0.9535    3.7317    2.9978 H   0  0  0  0  0  0  0  0  0  0  0  0
   -3.1228    1.2362    0.2475 H   0  0  0  0  0  0  0  0  0  0  0  0
   -0.8381    1.3791    3.2583 H   0  0  0  0  0  0  0  0  0  0  0  0
   -0.6519    0.6935    1.6229 H   0  0  0  0  0  0  0  0  0  0  0  0
   -2.0217   -2.4742    2.6884 H   0  0  0  0  0  0  0  0  0  0  0  0
   -0.9414   -1.4620    1.7041 H   0  0  0  0  0  0  0  0  0  0  0  0
   -3.2267   -0.9647    0.3369 H   0  0  0  0  0  0  0  0  0  0  0  0
   -3.8297   -3.6270    1.6518 H   0  0  0  0  0  0  0  0  0  0  0  0
   -7.1439   -1.7747   -0.0250 H   0  0  0  0  0  0  0  0  0  0  0  0
   -6.9569    0.0026    1.6517 H   0  0  0  0  0  0  0  0  0  0  0  0
   -6.3842   -1.4948    2.4209 H   0  0  0  0  0  0  0  0  0  0  0  0
   -5.1969   -0.2762    1.8314 H   0  0  0  0  0  0  0  0  0  0  0  0
   -4.6786   -0.9211   -1.2708 H   0  0  0  0  0  0  0  0  0  0  0  0
   -3.2341   -4.2279   -0.9932 H   0  0  0  0  0  0  0  0  0  0  0  0
   -0.7772   -4.6272   -1.9795 H   0  0  0  0  0  0  0  0  0  0  0  0
   -2.1702   -6.6095   -0.0683 H   0  0  0  0  0  0  0  0  0  0  0  0
   -0.8696   -7.0460   -1.2684 H   0  0  0  0  0  0  0  0  0  0  0  0
   -2.4665   -6.4249   -1.8419 H   0  0  0  0  0  0  0  0  0  0  0  0
    1.2424   -3.3127   -0.7564 H   0  0  0  0  0  0  0  0  0  0  0  0
    3.2035   -4.5713   -0.8366 H   0  0  0  0  0  0  0  0  0  0  0  0
    3.3208   -6.9937   -0.3309 H   0  0  0  0  0  0  0  0  0  0  0  0
    1.9853   -6.6144   -1.4760 H   0  0  0  0  0  0  0  0  0  0  0  0
    1.6189   -6.9757    0.2561 H   0  0  0  0  0  0  0  0  0  0  0  0
    4.2449   -3.6577    2.5739 H   0  0  0  0  0  0  0  0  0  0  0  0
    4.9523   -3.3093   -0.2171 H   0  0  0  0  0  0  0  0  0  0  0  0
    5.9290   -5.8979    1.1477 H   0  0  0  0  0  0  0  0  0  0  0  0
    5.2370   -5.6864   -0.5085 H   0  0  0  0  0  0  0  0  0  0  0  0
    6.8919   -5.1187   -0.1632 H   0  0  0  0  0  0  0  0  0  0  0  0
    7.6876   -1.3813    1.3876 H   0  0  0  0  0  0  0  0  0  0  0  0
    5.7527   -1.2557   -0.7884 H   0  0  0  0  0  0  0  0  0  0  0  0
    6.7062   -3.3200   -1.7060 H   0  0  0  0  0  0  0  0  0  0  0  0
    7.4208   -1.9873   -2.6388 H   0  0  0  0  0  0  0  0  0  0  0  0
    8.3918   -2.7845   -1.3358 H   0  0  0  0  0  0  0  0  0  0  0  0
    6.6657    1.1585   -2.2609 H   0  0  0  0  0  0  0  0  0  0  0  0
    5.8859    2.8739   -0.9248 H   0  0  0  0  0  0  0  0  0  0  0  0
    7.4188    3.6972    0.8738 H   0  0  0  0  0  0  0  0  0  0  0  0
    8.3953    2.1853    0.7266 H   0  0  0  0  0  0  0  0  0  0  0  0
    8.2681    3.3250   -0.6723 H   0  0  0  0  0  0  0  0  0  0  0  0
    3.6063    1.2320    1.3626 H   0  0  0  0  0  0  0  0  0  0  0  0
    4.5035    3.9912    0.4000 H   0  0  0  0  0  0  0  0  0  0  0  0
    3.9294    3.7423    2.8402 H   0  0  0  0  0  0  0  0  0  0  0  0
    2.2627    3.2370    2.3675 H   0  0  0  0  0  0  0  0  0  0  0  0
    2.8699    4.8917    1.9549 H   0  0  0  0  0  0  0  0  0  0  0  0
    0.5897    3.5008    0.0304 H   0  0  0  0  0  0  0  0  0  0  0  0
    1.0403    5.1114   -1.9820 H   0  0  0  0  0  0  0  0  0  0  0  0
    3.3608    5.3619   -2.7026 H   0  0  0  0  0  0  0  0  0  0  0  0
    4.3969    6.5719   -1.8618 H   0  0  0  0  0  0  0  0  0  0  0  0
   -0.0326    7.0862   -0.7727 H   0  0  0  0  0  0  0  0  0  0  0  0
   -0.8533    5.5031   -0.6222 H   0  0  0  0  0  0  0  0  0  0  0  0
   -1.7854    6.3280    2.9467 H   0  0  0  0  0  0  0  0  0  0  0  0
   -2.1489    6.9301    1.2897 H   0  0  0  0  0  0  0  0  0  0  0  0
  1  2  1  0
  2  3  2  0
  2  4  1  0
  4  5  1  0
  5  6  1  0
  6  7  1  0
  7  8  1  0
  8  9  1  0
  9 10  1  0
 10 11  2  0
 11 12  1  0
 12 13  2  0
 13 14  1  0
 13 15  1  0
 15 16  1  0
 16 17  1  0
 17 18  1  0
 18 19  1  0
 19 20  1  0
 20 21  2  0
 20 22  1  0
 22 23  1  0
 22 24  1  0
 24 25  1  0
 25 26  2  0
 18 27  1  0
 27 28  2  0
 27 29  1  0
 29 30  1  0
 30 31  1  0
 30 32  1  0
 32 33  2  0
 32 34  1  0
 34 35  1  0
 35 36  1  0
 35 37  1  0
 37 38  2  0
 37 39  1  0
 39 40  1  0
 40 41  1  0
 40 42  1  0
 42 43  2  0
 42 44  1  0
 44 45  1  0
 45 46  1  0
 45 47  1  0
 47 48  2  0
 47 49  1  0
 49 50  1  0
 50 51  1  0
 50 52  1  0
 52 53  2  0
 52 54  1  0
 54 55  1  0
 55 56  1  0
 55 57  1  0
 57 58  2  0
 57 59  1  0
 59 60  1  0
 60 61  1  0
 61 62  1  0
 61 63  2  0
 60 64  1  0
 64 65  1  0
 65 66  1  0
 25  5  1  0
 14  9  2  0
 66 11  1  0
  1 67  1  0
  1 68  1  0
  1 69  1  0
  4 70  1  0
  5 71  1  6
  6 72  1  0
  6 73  1  0
  8 74  1  0
  8 75  1  0
 10 76  1  0
 12 77  1  0
 14 78  1  0
 15 79  1  0
 15 80  1  0
 17 81  1  0
 17 82  1  0
 18 83  1  6
 19 84  1  0
 22 85  1  6
 23 86  1  0
 23 87  1  0
 23 88  1  0
 24 89  1  0
 29 90  1  0
 30 91  1  6
 31 92  1  0
 31 93  1  0
 31 94  1  0
 34 95  1  0
 35 96  1  6
 36 97  1  0
 36 98  1  0
 36 99  1  0
 39100  1  0
 40101  1  6
 41102  1  0
 41103  1  0
 41104  1  0
 44105  1  0
 45106  1  6
 46107  1  0
 46108  1  0
 46109  1  0
 49110  1  0
 50111  1  6
 51112  1  0
 51113  1  0
 51114  1  0
 54115  1  0
 55116  1  6
 56117  1  0
 56118  1  0
 56119  1  0
 59120  1  0
 60121  1  6
 62122  1  0
 62123  1  0
 64124  1  0
 64125  1  0
 66126  1  0
 66127  1  0
M  END
