
     RDKit          3D

237239  0  0  0  0  0  0  0  0999 V2000
    3.9236   -9.0489   -0.1000 C   0  0  0  0  0  0  0  0  0  0  0  0
    4.1491   -8.0311   -1.1795 C   0  0  0  0  0  0  0  0  0  0  0  0
    3.6550   -8.2334   -2.3197 O   0  0  0  0  0  0  0  0  0  0  0  0
    4.9274   -6.8408   -0.9582 N   0  0  0  0  0  0  0  0  0  0  0  0
    5.6159   -6.5186    0.2981 C   0  0  2  0  0  0  0  0  0  0  0  0
    4.7374   -5.6551    1.2256 C   0  0  0  0  0  0  0  0  0  0  0  0
    4.3964   -3.9596    0.5980 S   0  0  0  0  0  0  0  0  0  0  0  0
    3.0517   -4.3861   -0.5653 C   0  0  0  0  0  0  0  0  0  0  0  0
    1.8613   -3.4923   -0.3597 C   0  0  0  0  0  0  0  0  0  0  0  0
    0.9595   -3.7621    0.6740 C   0  0  0  0  0  0  0  0  0  0  0  0
   -0.2668   -3.0801    0.7444 C   0  0  0  0  0  0  0  0  0  0  0  0
   -0.5573   -2.0849   -0.1995 C   0  0  0  0  0  0  0  0  0  0  0  0
    0.3846   -1.7242   -1.1800 C   0  0  0  0  0  0  0  0  0  0  0  0
    1.5697   -2.4734   -1.2792 C   0  0  0  0  0  0  0  0  0  0  0  0
    0.1152   -0.6536   -2.2100 C   0  0  0  0  0  0  0  0  0  0  0  0
   -1.0645    0.6572   -1.7068 S   0  0  0  0  0  0  0  0  0  0  0  0
   -0.2240    1.3149   -0.2042 C   0  0  0  0  0  0  0  0  0  0  0  0
    1.0485    2.1678   -0.4536 C   0  0  1  0  0  0  0  0  0  0  0  0
    2.2358    1.3035   -0.5181 N   0  0  0  0  0  0  0  0  0  0  0  0
    3.5990    1.7537   -0.4285 C   0  0  0  0  0  0  0  0  0  0  0  0
    4.5209    0.9001   -0.5584 O   0  0  0  0  0  0  0  0  0  0  0  0
    3.9588    3.1708   -0.0529 C   0  0  1  0  0  0  0  0  0  0  0  0
    4.0786    3.2864    1.4703 C   0  0  0  0  0  0  0  0  0  0  0  0
    5.2366    3.5377   -0.6702 N   0  0  0  0  0  0  0  0  0  0  0  0
    5.3616    4.6768   -1.5216 C   0  0  0  0  0  0  0  0  0  0  0  0
    5.1717    4.5431   -2.7588 O   0  0  0  0  0  0  0  0  0  0  0  0
    5.6385    6.0435   -0.9488 C   0  0  1  0  0  0  0  0  0  0  0  0
    4.3186    6.7720   -0.6842 C   0  0  0  0  0  0  0  0  0  0  0  0
    6.4383    5.9626    0.2846 N   0  0  0  0  0  0  0  0  0  0  0  0
    7.7125    5.2994    0.3557 C   0  0  0  0  0  0  0  0  0  0  0  0
    7.7845    4.1873    0.9480 O   0  0  0  0  0  0  0  0  0  0  0  0
    9.0032    5.9667   -0.0632 C   0  0  1  0  0  0  0  0  0  0  0  0
    8.8116    7.0435   -1.1382 C   0  0  0  0  0  0  0  0  0  0  0  0
    9.6353    6.5615    1.1185 N   0  0  0  0  0  0  0  0  0  0  0  0
   10.9578    6.2763    1.6173 C   0  0  0  0  0  0  0  0  0  0  0  0
   11.3725    6.9451    2.6048 O   0  0  0  0  0  0  0  0  0  0  0  0
   11.8924    5.2823    0.9475 C   0  0  1  0  0  0  0  0  0  0  0  0
   12.5869    5.9625   -0.2339 C   0  0  0  0  0  0  0  0  0  0  0  0
   12.8940    4.7642    1.9007 N   0  0  0  0  0  0  0  0  0  0  0  0
   13.5145    3.4671    1.8142 C   0  0  0  0  0  0  0  0  0  0  0  0
   14.0483    2.9866    2.8507 O   0  0  0  0  0  0  0  0  0  0  0  0
   13.6384    2.7131    0.5121 C   0  0  1  0  0  0  0  0  0  0  0  0
   14.9799    3.0333   -0.1511 C   0  0  0  0  0  0  0  0  0  0  0  0
   13.5547    1.2688    0.7439 N   0  0  0  0  0  0  0  0  0  0  0  0
   12.5015    0.4687    0.1826 C   0  0  0  0  0  0  0  0  0  0  0  0
   11.3783    0.9878   -0.0554 O   0  0  0  0  0  0  0  0  0  0  0  0
   12.7609   -0.9523   -0.2623 C   0  0  1  0  0  0  0  0  0  0  0  0
   13.8065   -0.9669   -1.3787 C   0  0  0  0  0  0  0  0  0  0  0  0
   13.2121   -1.7885    0.8639 N   0  0  0  0  0  0  0  0  0  0  0  0
   13.0307   -3.2121    0.9489 C   0  0  0  0  0  0  0  0  0  0  0  0
   13.5772   -3.8302    1.9006 O   0  0  0  0  0  0  0  0  0  0  0  0
   12.1822   -3.9846   -0.0399 C   0  0  1  0  0  0  0  0  0  0  0  0
   12.7421   -5.3978   -0.2951 C   0  0  0  0  0  0  0  0  0  0  0  0
   10.7876   -4.0150    0.4236 N   0  0  0  0  0  0  0  0  0  0  0  0
   10.2457   -5.0769    1.2191 C   0  0  0  0  0  0  0  0  0  0  0  0
   10.4270   -5.0815    2.4628 O   0  0  0  0  0  0  0  0  0  0  0  0
    9.4202   -6.1536    0.5623 C   0  0  1  0  0  0  0  0  0  0  0  0
    9.9487   -7.5512    0.8973 C   0  0  0  0  0  0  0  0  0  0  0  0
    8.0192   -6.0450    0.9863 N   0  0  0  0  0  0  0  0  0  0  0  0
    6.9595   -5.8857    0.0300 C   0  0  0  0  0  0  0  0  0  0  0  0
    7.1600   -5.2382   -1.0348 O   0  0  0  0  0  0  0  0  0  0  0  0
    0.9419    3.0403   -1.6920 C   0  0  0  0  0  0  0  0  0  0  0  0
    1.4800    2.6532   -2.7612 O   0  0  0  0  0  0  0  0  0  0  0  0
    0.3253    4.3442   -1.6641 N   0  0  0  0  0  0  0  0  0  0  0  0
   -0.7786    4.7281   -0.7731 C   0  0  2  0  0  0  0  0  0  0  0  0
   -2.1072    4.3251   -1.4228 C   0  0  0  0  0  0  0  0  0  0  0  0
   -0.6945    6.2095   -0.4693 C   0  0  0  0  0  0  0  0  0  0  0  0
    0.4087    6.6883   -0.1059 O   0  0  0  0  0  0  0  0  0  0  0  0
   -1.8222    7.1000   -0.5878 N   0  0  0  0  0  0  0  0  0  0  0  0
   -2.9633    7.1512    0.3523 C   0  0  2  0  0  0  0  0  0  0  0  0
   -2.6476    6.4235    1.6730 C   0  0  0  0  0  0  0  0  0  0  0  0
   -4.2253    6.6431   -0.3119 C   0  0  0  0  0  0  0  0  0  0  0  0
   -4.3331    6.6859   -1.5691 O   0  0  0  0  0  0  0  0  0  0  0  0
   -5.3096    6.1190    0.4573 N   0  0  0  0  0  0  0  0  0  0  0  0
   -6.1012    6.9653    1.3549 C   0  0  2  0  0  0  0  0  0  0  0  0
   -6.6124    6.1494    2.5446 C   0  0  0  0  0  0  0  0  0  0  0  0
   -7.2346    7.6416    0.6109 C   0  0  0  0  0  0  0  0  0  0  0  0
   -7.0805    8.8312    0.2178 O   0  0  0  0  0  0  0  0  0  0  0  0
   -8.5152    7.0162    0.4205 N   0  0  0  0  0  0  0  0  0  0  0  0
   -8.6784    5.8103   -0.3946 C   0  0  2  0  0  0  0  0  0  0  0  0
   -8.9519    6.1881   -1.8499 C   0  0  0  0  0  0  0  0  0  0  0  0
   -9.7876    4.9472    0.1528 C   0  0  0  0  0  0  0  0  0  0  0  0
   -9.5093    3.7955    0.5890 O   0  0  0  0  0  0  0  0  0  0  0  0
  -11.1491    5.4035    0.1578 N   0  0  0  0  0  0  0  0  0  0  0  0
  -12.2688    4.4585    0.1450 C   0  0  2  0  0  0  0  0  0  0  0  0
  -13.5896    5.1749   -0.1547 C   0  0  0  0  0  0  0  0  0  0  0  0
  -12.3669    3.7375    1.4735 C   0  0  0  0  0  0  0  0  0  0  0  0
  -12.3350    4.4158    2.5358 O   0  0  0  0  0  0  0  0  0  0  0  0
  -12.4413    2.3013    1.5660 N   0  0  0  0  0  0  0  0  0  0  0  0
  -13.1354    1.4537    0.5897 C   0  0  2  0  0  0  0  0  0  0  0  0
  -14.5254    1.0808    1.1220 C   0  0  0  0  0  0  0  0  0  0  0  0
  -12.2749    0.2591    0.2426 C   0  0  0  0  0  0  0  0  0  0  0  0
  -11.1519    0.4520   -0.2988 O   0  0  0  0  0  0  0  0  0  0  0  0
  -12.7554   -1.0872    0.3972 N   0  0  0  0  0  0  0  0  0  0  0  0
  -12.6020   -2.0759   -0.6814 C   0  0  2  0  0  0  0  0  0  0  0  0
  -13.2392   -1.5389   -1.9732 C   0  0  0  0  0  0  0  0  0  0  0  0
  -13.2812   -3.3770   -0.3065 C   0  0  0  0  0  0  0  0  0  0  0  0
  -14.4597   -3.3315    0.1420 O   0  0  0  0  0  0  0  0  0  0  0  0
  -12.6694   -4.6698   -0.4823 N   0  0  0  0  0  0  0  0  0  0  0  0
  -11.3359   -4.9362   -1.0492 C   0  0  2  0  0  0  0  0  0  0  0  0
  -11.3126   -4.6426   -2.5591 C   0  0  0  0  0  0  0  0  0  0  0  0
  -10.9747   -6.3877   -0.8117 C   0  0  0  0  0  0  0  0  0  0  0  0
  -11.6061   -7.2754   -1.4526 O   0  0  0  0  0  0  0  0  0  0  0  0
   -9.9495   -6.8144    0.1082 N   0  0  0  0  0  0  0  0  0  0  0  0
   -9.3702   -6.0498    1.2167 C   0  0  2  0  0  0  0  0  0  0  0  0
  -10.4569   -5.4669    2.1350 C   0  0  0  0  0  0  0  0  0  0  0  0
   -8.3588   -5.0280    0.7294 C   0  0  0  0  0  0  0  0  0  0  0  0
   -8.5809   -3.7986    0.8968 O   0  0  0  0  0  0  0  0  0  0  0  0
   -7.1320   -5.4218    0.0836 N   0  0  0  0  0  0  0  0  0  0  0  0
   -6.5598   -6.7738    0.1529 C   0  0  2  0  0  0  0  0  0  0  0  0
   -5.8690   -6.9818    1.5050 C   0  0  0  0  0  0  0  0  0  0  0  0
   -5.6217   -7.0129   -1.0106 C   0  0  0  0  0  0  0  0  0  0  0  0
   -5.9208   -7.8774   -1.8776 O   0  0  0  0  0  0  0  0  0  0  0  0
   -4.4489   -6.2097   -1.2165 N   0  0  0  0  0  0  0  0  0  0  0  0
   -3.2550   -6.3424   -0.3824 C   0  0  1  0  0  0  0  0  0  0  0  0
   -2.1231   -6.9318   -1.1928 C   0  0  0  0  0  0  0  0  0  0  0  0
   -1.4778   -8.1293   -0.7588 N   0  0  0  0  0  0  0  0  0  0  0  0
   -1.7264   -6.3542   -2.2408 O   0  0  0  0  0  0  0  0  0  0  0  0
   -2.8596   -4.9761    0.1884 C   0  0  0  0  0  0  0  0  0  0  0  0
   -1.7704   -5.2015    1.6458 S   0  0  0  0  0  0  0  0  0  0  0  0
   -1.2726   -3.4443    1.7967 C   0  0  0  0  0  0  0  0  0  0  0  0
    3.2552   -9.8588   -0.4628 H   0  0  0  0  0  0  0  0  0  0  0  0
    3.4454   -8.5640    0.7763 H   0  0  0  0  0  0  0  0  0  0  0  0
    4.8881   -9.5093    0.2002 H   0  0  0  0  0  0  0  0  0  0  0  0
    4.9457   -6.1432   -1.7347 H   0  0  0  0  0  0  0  0  0  0  0  0
    5.8257   -7.4609    0.8447 H   0  0  0  0  0  0  0  0  0  0  0  0
    3.7880   -6.1782    1.4585 H   0  0  0  0  0  0  0  0  0  0  0  0
    5.2695   -5.5365    2.1912 H   0  0  0  0  0  0  0  0  0  0  0  0
    2.7260   -5.4447   -0.4686 H   0  0  0  0  0  0  0  0  0  0  0  0
    3.4430   -4.2622   -1.5967 H   0  0  0  0  0  0  0  0  0  0  0  0
    1.1751   -4.5617    1.3797 H   0  0  0  0  0  0  0  0  0  0  0  0
   -1.5163   -1.5855   -0.1600 H   0  0  0  0  0  0  0  0  0  0  0  0
    2.2614   -2.2768   -2.0864 H   0  0  0  0  0  0  0  0  0  0  0  0
   -0.3064   -1.1470   -3.1073 H   0  0  0  0  0  0  0  0  0  0  0  0
    1.0598   -0.1703   -2.5342 H   0  0  0  0  0  0  0  0  0  0  0  0
   -0.9730    1.9362    0.3194 H   0  0  0  0  0  0  0  0  0  0  0  0
   -0.0010    0.4925    0.5033 H   0  0  0  0  0  0  0  0  0  0  0  0
    1.1741    2.8319    0.4275 H   0  0  0  0  0  0  0  0  0  0  0  0
    2.1110    0.2655   -0.5243 H   0  0  0  0  0  0  0  0  0  0  0  0
    3.1721    3.8716   -0.3968 H   0  0  0  0  0  0  0  0  0  0  0  0
    4.9205    2.6631    1.8412 H   0  0  0  0  0  0  0  0  0  0  0  0
    4.2722    4.3426    1.7548 H   0  0  0  0  0  0  0  0  0  0  0  0
    3.1367    2.9525    1.9572 H   0  0  0  0  0  0  0  0  0  0  0  0
    6.0701    2.9202   -0.5498 H   0  0  0  0  0  0  0  0  0  0  0  0
    6.1881    6.6280   -1.7063 H   0  0  0  0  0  0  0  0  0  0  0  0
    3.7118    6.8283   -1.6114 H   0  0  0  0  0  0  0  0  0  0  0  0
    3.7250    6.2469    0.0968 H   0  0  0  0  0  0  0  0  0  0  0  0
    4.5243    7.8076   -0.3399 H   0  0  0  0  0  0  0  0  0  0  0  0
    5.9713    6.1630    1.1994 H   0  0  0  0  0  0  0  0  0  0  0  0
    9.6456    5.1920   -0.5205 H   0  0  0  0  0  0  0  0  0  0  0  0
    8.1092    7.8315   -0.7924 H   0  0  0  0  0  0  0  0  0  0  0  0
    8.4381    6.5784   -2.0757 H   0  0  0  0  0  0  0  0  0  0  0  0
    9.7823    7.5273   -1.3728 H   0  0  0  0  0  0  0  0  0  0  0  0
    9.0809    7.2837    1.6337 H   0  0  0  0  0  0  0  0  0  0  0  0
   11.2896    4.4235    0.5987 H   0  0  0  0  0  0  0  0  0  0  0  0
   13.1176    5.2223   -0.8606 H   0  0  0  0  0  0  0  0  0  0  0  0
   13.3141    6.7189    0.1250 H   0  0  0  0  0  0  0  0  0  0  0  0
   11.8483    6.4664   -0.8862 H   0  0  0  0  0  0  0  0  0  0  0  0
   13.1483    5.3297    2.7426 H   0  0  0  0  0  0  0  0  0  0  0  0
   12.8359    3.0172   -0.1836 H   0  0  0  0  0  0  0  0  0  0  0  0
   15.8210    2.6855    0.4822 H   0  0  0  0  0  0  0  0  0  0  0  0
   15.0413    2.5249   -1.1364 H   0  0  0  0  0  0  0  0  0  0  0  0
   15.0913    4.1261   -0.3076 H   0  0  0  0  0  0  0  0  0  0  0  0
   14.3710    0.7908    1.1869 H   0  0  0  0  0  0  0  0  0  0  0  0
   11.8045   -1.3512   -0.6618 H   0  0  0  0  0  0  0  0  0  0  0  0
   13.9635   -2.0030   -1.7545 H   0  0  0  0  0  0  0  0  0  0  0  0
   13.4677   -0.3358   -2.2307 H   0  0  0  0  0  0  0  0  0  0  0  0
   14.7815   -0.5760   -1.0125 H   0  0  0  0  0  0  0  0  0  0  0  0
   13.8270   -1.3565    1.5919 H   0  0  0  0  0  0  0  0  0  0  0  0
   12.1972   -3.4853   -1.0274 H   0  0  0  0  0  0  0  0  0  0  0  0
   12.0915   -5.9309   -1.0195 H   0  0  0  0  0  0  0  0  0  0  0  0
   12.8003   -5.9860    0.6455 H   0  0  0  0  0  0  0  0  0  0  0  0
   13.7607   -5.3258   -0.7323 H   0  0  0  0  0  0  0  0  0  0  0  0
   10.2459   -3.1200    0.3931 H   0  0  0  0  0  0  0  0  0  0  0  0
    9.5004   -6.0301   -0.5433 H   0  0  0  0  0  0  0  0  0  0  0  0
   10.9945   -7.6722    0.5447 H   0  0  0  0  0  0  0  0  0  0  0  0
    9.9071   -7.7344    1.9918 H   0  0  0  0  0  0  0  0  0  0  0  0
    9.3210   -8.3142    0.3909 H   0  0  0  0  0  0  0  0  0  0  0  0
    7.7681   -6.3727    1.9430 H   0  0  0  0  0  0  0  0  0  0  0  0
    0.4976    4.9572   -2.4951 H   0  0  0  0  0  0  0  0  0  0  0  0
   -0.6817    4.1993    0.1951 H   0  0  0  0  0  0  0  0  0  0  0  0
   -2.0524    3.2881   -1.8085 H   0  0  0  0  0  0  0  0  0  0  0  0
   -2.9296    4.3536   -0.6770 H   0  0  0  0  0  0  0  0  0  0  0  0
   -2.3437    4.9924   -2.2828 H   0  0  0  0  0  0  0  0  0  0  0  0
   -1.6544    7.9715   -1.1471 H   0  0  0  0  0  0  0  0  0  0  0  0
   -3.1431    8.2190    0.6046 H   0  0  0  0  0  0  0  0  0  0  0  0
   -3.4356    6.6234    2.4269 H   0  0  0  0  0  0  0  0  0  0  0  0
   -2.5704    5.3291    1.5192 H   0  0  0  0  0  0  0  0  0  0  0  0
   -1.6928    6.7996    2.0942 H   0  0  0  0  0  0  0  0  0  0  0  0
   -5.6560    5.1683    0.2028 H   0  0  0  0  0  0  0  0  0  0  0  0
   -5.4482    7.7634    1.7683 H   0  0  0  0  0  0  0  0  0  0  0  0
   -7.2451    5.3006    2.2078 H   0  0  0  0  0  0  0  0  0  0  0  0
   -7.2041    6.7943    3.2300 H   0  0  0  0  0  0  0  0  0  0  0  0
   -5.7506    5.7400    3.1132 H   0  0  0  0  0  0  0  0  0  0  0  0
   -9.3509    7.6337    0.5299 H   0  0  0  0  0  0  0  0  0  0  0  0
   -7.7489    5.2150   -0.3700 H   0  0  0  0  0  0  0  0  0  0  0  0
   -9.1544    5.2791   -2.4545 H   0  0  0  0  0  0  0  0  0  0  0  0
   -8.0655    6.7073   -2.2807 H   0  0  0  0  0  0  0  0  0  0  0  0
   -9.8280    6.8702   -1.9215 H   0  0  0  0  0  0  0  0  0  0  0  0
  -11.3327    6.4248    0.0094 H   0  0  0  0  0  0  0  0  0  0  0  0
  -12.0860    3.7400   -0.6812 H   0  0  0  0  0  0  0  0  0  0  0  0
  -13.5323    5.6761   -1.1449 H   0  0  0  0  0  0  0  0  0  0  0  0
  -13.7990    5.9442    0.6175 H   0  0  0  0  0  0  0  0  0  0  0  0
  -14.4277    4.4468   -0.1736 H   0  0  0  0  0  0  0  0  0  0  0  0
  -12.1891    1.8727    2.4823 H   0  0  0  0  0  0  0  0  0  0  0  0
  -13.3078    1.9945   -0.3577 H   0  0  0  0  0  0  0  0  0  0  0  0
  -15.0383    0.4045    0.4049 H   0  0  0  0  0  0  0  0  0  0  0  0
  -15.1383    1.9981    1.2281 H   0  0  0  0  0  0  0  0  0  0  0  0
  -14.4522    0.5828    2.1095 H   0  0  0  0  0  0  0  0  0  0  0  0
  -13.3303   -1.3155    1.2411 H   0  0  0  0  0  0  0  0  0  0  0  0
  -11.5210   -2.2364   -0.8458 H   0  0  0  0  0  0  0  0  0  0  0  0
  -12.6359   -0.7000   -2.3758 H   0  0  0  0  0  0  0  0  0  0  0  0
  -13.2878   -2.3281   -2.7523 H   0  0  0  0  0  0  0  0  0  0  0  0
  -14.2670   -1.1752   -1.7753 H   0  0  0  0  0  0  0  0  0  0  0  0
  -13.2214   -5.4830   -0.1227 H   0  0  0  0  0  0  0  0  0  0  0  0
  -10.5893   -4.2806   -0.5653 H   0  0  0  0  0  0  0  0  0  0  0  0
  -11.3064   -3.5542   -2.7574 H   0  0  0  0  0  0  0  0  0  0  0  0
  -12.1954   -5.0944   -3.0660 H   0  0  0  0  0  0  0  0  0  0  0  0
  -10.3897   -5.0575   -3.0215 H   0  0  0  0  0  0  0  0  0  0  0  0
   -9.7035   -7.8334    0.0704 H   0  0  0  0  0  0  0  0  0  0  0  0
   -8.8123   -6.7612    1.8610 H   0  0  0  0  0  0  0  0  0  0  0  0
  -10.0005   -5.1174    3.0872 H   0  0  0  0  0  0  0  0  0  0  0  0
  -11.2005   -6.2538    2.3818 H   0  0  0  0  0  0  0  0  0  0  0  0
  -10.9874   -4.6148    1.6701 H   0  0  0  0  0  0  0  0  0  0  0  0
   -6.5142   -4.6525   -0.2651 H   0  0  0  0  0  0  0  0  0  0  0  0
   -7.3693   -7.5269    0.0686 H   0  0  0  0  0  0  0  0  0  0  0  0
   -6.6135   -6.9944    2.3244 H   0  0  0  0  0  0  0  0  0  0  0  0
   -5.1585   -6.1567    1.7162 H   0  0  0  0  0  0  0  0  0  0  0  0
   -5.3391   -7.9579    1.5283 H   0  0  0  0  0  0  0  0  0  0  0  0
   -4.3525   -5.7396   -2.1434 H   0  0  0  0  0  0  0  0  0  0  0  0
   -3.4591   -7.0357    0.4558 H   0  0  0  0  0  0  0  0  0  0  0  0
   -0.6946   -8.5430   -1.3192 H   0  0  0  0  0  0  0  0  0  0  0  0
   -1.7747   -8.6147    0.1171 H   0  0  0  0  0  0  0  0  0  0  0  0
   -3.7666   -4.4222    0.5130 H   0  0  0  0  0  0  0  0  0  0  0  0
   -2.3479   -4.3633   -0.5887 H   0  0  0  0  0  0  0  0  0  0  0  0
   -2.1735   -2.7904    1.7447 H   0  0  0  0  0  0  0  0  0  0  0  0
   -0.8174   -3.2998    2.8029 H   0  0  0  0  0  0  0  0  0  0  0  0
  1  2  1  0
  2  3  2  0
  2  4  1  0
  4  5  1  0
  5  6  1  0
  6  7  1  0
  7  8  1  0
  8  9  1  0
  9 10  2  0
 10 11  1  0
 11 12  2  0
 12 13  1  0
 13 14  2  0
 13 15  1  0
 15 16  1  0
 16 17  1  0
 17 18  1  0
 18 19  1  0
 19 20  1  0
 20 21  2  0
 20 22  1  0
 22 23  1  0
 22 24  1  0
 24 25  1  0
 25 26  2  0
 25 27  1  0
 27 28  1  0
 27 29  1  0
 29 30  1  0
 30 31  2  0
 30 32  1  0
 32 33  1  0
 32 34  1  0
 34 35  1  0
 35 36  2  0
 35 37  1  0
 37 38  1  0
 37 39  1  0
 39 40  1  0
 40 41  2  0
 40 42  1  0
 42 43  1  0
 42 44  1  0
 44 45  1  0
 45 46  2  0
 45 47  1  0
 47 48  1  0
 47 49  1  0
 49 50  1  0
 50 51  2  0
 50 52  1  0
 52 53  1  0
 52 54  1  0
 54 55  1  0
 55 56  2  0
 55 57  1  0
 57 58  1  0
 57 59  1  0
 59 60  1  0
 60 61  2  0
 18 62  1  0
 62 63  2  0
 62 64  1  0
 64 65  1  0
 65 66  1  0
 65 67  1  0
 67 68  2  0
 67 69  1  0
 69 70  1  0
 70 71  1  0
 70 72  1  0
 72 73  2  0
 72 74  1  0
 74 75  1  0
 75 76  1  0
 75 77  1  0
 77 78  2  0
 77 79  1  0
 79 80  1  0
 80 81  1  0
 80 82  1  0
 82 83  2  0
 82 84  1  0
 84 85  1  0
 85 86  1  0
 85 87  1  0
 87 88  2  0
 87 89  1  0
 89 90  1  0
 90 91  1  0
 90 92  1  0
 92 93  2  0
 92 94  1  0
 94 95  1  0
 95 96  1  0
 95 97  1  0
 97 98  2  0
 97 99  1  0
 99100  1  0
100101  1  0
100102  1  0
102103  2  0
102104  1  0
104105  1  0
105106  1  0
105107  1  0
107108  2  0
107109  1  0
109110  1  0
110111  1  0
110112  1  0
112113  2  0
112114  1  0
114115  1  0
115116  1  0
116117  1  0
116118  2  0
115119  1  0
119120  1  0
120121  1  0
 60  5  1  0
 14  9  1  0
121 11  1  0
  1122  1  0
  1123  1  0
  1124  1  0
  4125  1  0
  5126  1  1
  6127  1  0
  6128  1  0
  8129  1  0
  8130  1  0
 10131  1  0
 12132  1  0
 14133  1  0
 15134  1  0
 15135  1  0
 17136  1  0
 17137  1  0
 18138  1  1
 19139  1  0
 22140  1  6
 23141  1  0
 23142  1  0
 23143  1  0
 24144  1  0
 27145  1  6
 28146  1  0
 28147  1  0
 28148  1  0
 29149  1  0
 32150  1  6
 33151  1  0
 33152  1  0
 33153  1  0
 34154  1  0
 37155  1  6
 38156  1  0
 38157  1  0
 38158  1  0
 39159  1  0
 42160  1  6
 43161  1  0
 43162  1  0
 43163  1  0
 44164  1  0
 47165  1  6
 48166  1  0
 48167  1  0
 48168  1  0
 49169  1  0
 52170  1  6
 53171  1  0
 53172  1  0
 53173  1  0
 54174  1  0
 57175  1  6
 58176  1  0
 58177  1  0
 58178  1  0
 59179  1  0
 64180  1  0
 65181  1  1
 66182  1  0
 66183  1  0
 66184  1  0
 69185  1  0
 70186  1  1
 71187  1  0
 71188  1  0
 71189  1  0
 74190  1  0
 75191  1  1
 76192  1  0
 76193  1  0
 76194  1  0
 79195  1  0
 80196  1  6
 81197  1  0
 81198  1  0
 81199  1  0
 84200  1  0
 85201  1  6
 86202  1  0
 86203  1  0
 86204  1  0
 89205  1  0
 90206  1  6
 91207  1  0
 91208  1  0
 91209  1  0
 94210  1  0
 95211  1  6
 96212  1  0
 96213  1  0
 96214  1  0
 99215  1  0
100216  1  1
101217  1  0
101218  1  0
101219  1  0
104220  1  0
105221  1  1
106222  1  0
106223  1  0
106224  1  0
109225  1  0
110226  1  6
111227  1  0
111228  1  0
111229  1  0
114230  1  0
115231  1  1
117232  1  0
117233  1  0
119234  1  0
119235  1  0
121236  1  0
121237  1  0
M  END
