
     RDKit          3D

237239  0  0  0  0  0  0  0  0999 V2000
   -5.9354   -8.8195   -1.7764 C   0  0  0  0  0  0  0  0  0  0  0  0
   -5.2605   -8.4636   -0.4838 C   0  0  0  0  0  0  0  0  0  0  0  0
   -4.6025   -9.3575    0.1140 O   0  0  0  0  0  0  0  0  0  0  0  0
   -5.3564   -7.1564    0.1129 N   0  0  0  0  0  0  0  0  0  0  0  0
   -5.9713   -5.9582   -0.4815 C   0  0  1  0  0  0  0  0  0  0  0  0
   -5.0676   -5.3107   -1.5519 C   0  0  0  0  0  0  0  0  0  0  0  0
   -3.3553   -5.0477   -0.9668 S   0  0  0  0  0  0  0  0  0  0  0  0
   -3.7205   -3.7028    0.2305 C   0  0  0  0  0  0  0  0  0  0  0  0
   -2.4332   -3.1193    0.7364 C   0  0  0  0  0  0  0  0  0  0  0  0
   -1.4743   -3.9597    1.3268 C   0  0  0  0  0  0  0  0  0  0  0  0
   -0.2383   -3.4426    1.7366 C   0  0  0  0  0  0  0  0  0  0  0  0
    0.0272   -2.0800    1.5743 C   0  0  0  0  0  0  0  0  0  0  0  0
   -0.9535   -1.2091    1.0687 C   0  0  0  0  0  0  0  0  0  0  0  0
   -2.1783   -1.7429    0.6330 C   0  0  0  0  0  0  0  0  0  0  0  0
   -0.6660    0.2602    0.8435 C   0  0  0  0  0  0  0  0  0  0  0  0
    0.4053    0.9653    2.1588 S   0  0  0  0  0  0  0  0  0  0  0  0
   -0.7565    2.2294    2.7971 C   0  0  0  0  0  0  0  0  0  0  0  0
   -0.8190    3.4842    1.9026 C   0  0  1  0  0  0  0  0  0  0  0  0
   -1.6699    4.4907    2.5464 N   0  0  0  0  0  0  0  0  0  0  0  0
   -3.1059    4.4309    2.5226 C   0  0  0  0  0  0  0  0  0  0  0  0
   -3.7396    4.5689    3.6097 O   0  0  0  0  0  0  0  0  0  0  0  0
   -3.8769    4.3241    1.2268 C   0  0  1  0  0  0  0  0  0  0  0  0
   -4.8745    3.1616    1.2637 C   0  0  0  0  0  0  0  0  0  0  0  0
   -4.5383    5.5964    0.9076 N   0  0  0  0  0  0  0  0  0  0  0  0
   -5.3750    6.3134    1.8238 C   0  0  0  0  0  0  0  0  0  0  0  0
   -4.9334    7.3648    2.3635 O   0  0  0  0  0  0  0  0  0  0  0  0
   -6.8000    5.8922    2.0683 C   0  0  1  0  0  0  0  0  0  0  0  0
   -7.0297    5.5938    3.5543 C   0  0  0  0  0  0  0  0  0  0  0  0
   -7.7079    6.9627    1.6478 N   0  0  0  0  0  0  0  0  0  0  0  0
   -8.9607    6.7482    0.9763 C   0  0  0  0  0  0  0  0  0  0  0  0
   -9.9480    7.4603    1.3113 O   0  0  0  0  0  0  0  0  0  0  0  0
   -9.1340    5.7750   -0.1700 C   0  0  1  0  0  0  0  0  0  0  0  0
   -8.0749    6.0138   -1.2513 C   0  0  0  0  0  0  0  0  0  0  0  0
   -9.1105    4.3796    0.2842 N   0  0  0  0  0  0  0  0  0  0  0  0
  -10.0538    3.8275    1.2135 C   0  0  0  0  0  0  0  0  0  0  0  0
   -9.6240    3.3527    2.3007 O   0  0  0  0  0  0  0  0  0  0  0  0
  -11.5314    3.7336    0.9056 C   0  0  1  0  0  0  0  0  0  0  0  0
  -12.2678    4.9844    1.3747 C   0  0  0  0  0  0  0  0  0  0  0  0
  -11.7555    3.5227   -0.5281 N   0  0  0  0  0  0  0  0  0  0  0  0
  -12.1043    2.2531   -1.0995 C   0  0  0  0  0  0  0  0  0  0  0  0
  -11.4546    1.8456   -2.1013 O   0  0  0  0  0  0  0  0  0  0  0  0
  -13.2297    1.3931   -0.5533 C   0  0  1  0  0  0  0  0  0  0  0  0
  -14.4007    2.2361   -0.0242 C   0  0  0  0  0  0  0  0  0  0  0  0
  -13.7416    0.5187   -1.6166 N   0  0  0  0  0  0  0  0  0  0  0  0
  -14.0979   -0.8659   -1.4466 C   0  0  0  0  0  0  0  0  0  0  0  0
  -15.0063   -1.3493   -2.1730 O   0  0  0  0  0  0  0  0  0  0  0  0
  -13.4183   -1.7515   -0.4277 C   0  0  1  0  0  0  0  0  0  0  0  0
  -14.2075   -1.7550    0.8848 C   0  0  0  0  0  0  0  0  0  0  0  0
  -13.3203   -3.1223   -0.9399 N   0  0  0  0  0  0  0  0  0  0  0  0
  -12.0756   -3.7855   -1.2156 C   0  0  0  0  0  0  0  0  0  0  0  0
  -11.9948   -4.5070   -2.2477 O   0  0  0  0  0  0  0  0  0  0  0  0
  -10.9056   -3.7063   -0.2589 C   0  0  1  0  0  0  0  0  0  0  0  0
  -10.7026   -5.0048    0.5301 C   0  0  0  0  0  0  0  0  0  0  0  0
   -9.6737   -3.2339   -0.9189 N   0  0  0  0  0  0  0  0  0  0  0  0
   -8.9659   -3.7803   -2.0539 C   0  0  0  0  0  0  0  0  0  0  0  0
   -8.1309   -3.0370   -2.6426 O   0  0  0  0  0  0  0  0  0  0  0  0
   -9.0766   -5.2127   -2.5293 C   0  0  1  0  0  0  0  0  0  0  0  0
   -9.3895   -5.2378   -4.0303 C   0  0  0  0  0  0  0  0  0  0  0  0
   -7.8149   -5.9137   -2.2717 N   0  0  0  0  0  0  0  0  0  0  0  0
   -7.3868   -6.2222   -0.9404 C   0  0  0  0  0  0  0  0  0  0  0  0
   -8.2048   -6.7159   -0.1263 O   0  0  0  0  0  0  0  0  0  0  0  0
    0.5393    4.1011    1.6534 C   0  0  0  0  0  0  0  0  0  0  0  0
    1.4775    3.9380    2.4815 O   0  0  0  0  0  0  0  0  0  0  0  0
    0.7411    4.9260    0.4932 N   0  0  0  0  0  0  0  0  0  0  0  0
    1.7651    5.9702    0.4399 C   0  0  2  0  0  0  0  0  0  0  0  0
    1.0882    7.3374    0.6067 C   0  0  0  0  0  0  0  0  0  0  0  0
    2.5716    5.8308   -0.8359 C   0  0  0  0  0  0  0  0  0  0  0  0
    2.9713    4.6794   -1.1665 O   0  0  0  0  0  0  0  0  0  0  0  0
    2.9990    6.9806   -1.6067 N   0  0  0  0  0  0  0  0  0  0  0  0
    3.6133    6.8886   -2.9416 C   0  0  2  0  0  0  0  0  0  0  0  0
    2.6680    6.1779   -3.9154 C   0  0  0  0  0  0  0  0  0  0  0  0
    4.9912    6.2489   -2.9222 C   0  0  0  0  0  0  0  0  0  0  0  0
    5.5558    5.9983   -4.0207 O   0  0  0  0  0  0  0  0  0  0  0  0
    5.7058    6.0144   -1.6876 N   0  0  0  0  0  0  0  0  0  0  0  0
    7.0209    5.3552   -1.6552 C   0  0  2  0  0  0  0  0  0  0  0  0
    6.8772    3.8666   -1.9903 C   0  0  0  0  0  0  0  0  0  0  0  0
    7.6371    5.5263   -0.2866 C   0  0  0  0  0  0  0  0  0  0  0  0
    7.0805    4.9557    0.6885 O   0  0  0  0  0  0  0  0  0  0  0  0
    8.7642    6.3857   -0.0149 N   0  0  0  0  0  0  0  0  0  0  0  0
    9.8822    6.7273   -0.9076 C   0  0  2  0  0  0  0  0  0  0  0  0
    9.4831    7.7426   -1.9927 C   0  0  0  0  0  0  0  0  0  0  0  0
   10.5607    5.4870   -1.4535 C   0  0  0  0  0  0  0  0  0  0  0  0
   10.1076    4.9417   -2.4970 O   0  0  0  0  0  0  0  0  0  0  0  0
   11.7254    4.9115   -0.8366 N   0  0  0  0  0  0  0  0  0  0  0  0
   12.2412    5.3014    0.4823 C   0  0  2  0  0  0  0  0  0  0  0  0
   13.3146    6.3854    0.3170 C   0  0  0  0  0  0  0  0  0  0  0  0
   12.8246    4.1356    1.2486 C   0  0  0  0  0  0  0  0  0  0  0  0
   13.0850    4.2874    2.4733 O   0  0  0  0  0  0  0  0  0  0  0  0
   13.2193    2.9164    0.6119 N   0  0  0  0  0  0  0  0  0  0  0  0
   12.2384    1.9085    0.1871 C   0  0  2  0  0  0  0  0  0  0  0  0
   11.9318    0.9722    1.3602 C   0  0  0  0  0  0  0  0  0  0  0  0
   12.7599    1.1454   -1.0095 C   0  0  0  0  0  0  0  0  0  0  0  0
   13.7619    1.5737   -1.6410 O   0  0  0  0  0  0  0  0  0  0  0  0
   12.0668   -0.0026   -1.5016 N   0  0  0  0  0  0  0  0  0  0  0  0
   12.4938   -1.3555   -1.1100 C   0  0  2  0  0  0  0  0  0  0  0  0
   13.7729   -1.7397   -1.8646 C   0  0  0  0  0  0  0  0  0  0  0  0
   11.4142   -2.3718   -1.3993 C   0  0  0  0  0  0  0  0  0  0  0  0
   10.4864   -2.1068   -2.2085 O   0  0  0  0  0  0  0  0  0  0  0  0
   11.4929   -3.6851   -0.8371 N   0  0  0  0  0  0  0  0  0  0  0  0
   11.5225   -3.9224    0.6102 C   0  0  2  0  0  0  0  0  0  0  0  0
   12.8948   -4.4763    0.9958 C   0  0  0  0  0  0  0  0  0  0  0  0
   10.4299   -4.8921    1.0207 C   0  0  0  0  0  0  0  0  0  0  0  0
   10.3550   -5.2561    2.2234 O   0  0  0  0  0  0  0  0  0  0  0  0
    9.4771   -5.3884    0.0637 N   0  0  0  0  0  0  0  0  0  0  0  0
    8.8802   -6.7260    0.1576 C   0  0  2  0  0  0  0  0  0  0  0  0
    9.9682   -7.7999    0.3172 C   0  0  0  0  0  0  0  0  0  0  0  0
    8.1038   -7.0011   -1.1164 C   0  0  0  0  0  0  0  0  0  0  0  0
    8.7435   -7.0120   -2.2046 O   0  0  0  0  0  0  0  0  0  0  0  0
    6.6800   -7.1985   -1.1666 N   0  0  0  0  0  0  0  0  0  0  0  0
    5.7890   -7.5446   -0.0439 C   0  0  2  0  0  0  0  0  0  0  0  0
    5.8018   -9.0674    0.1169 C   0  0  0  0  0  0  0  0  0  0  0  0
    4.3970   -7.0231   -0.3326 C   0  0  0  0  0  0  0  0  0  0  0  0
    4.2360   -6.1293   -1.1989 O   0  0  0  0  0  0  0  0  0  0  0  0
    3.2420   -7.5236    0.3612 N   0  0  0  0  0  0  0  0  0  0  0  0
    2.9003   -7.1904    1.7550 C   0  0  1  0  0  0  0  0  0  0  0  0
    3.5544   -8.1635    2.7057 C   0  0  0  0  0  0  0  0  0  0  0  0
    4.7215   -7.8333    3.4677 N   0  0  0  0  0  0  0  0  0  0  0  0
    3.0588   -9.3201    2.8145 O   0  0  0  0  0  0  0  0  0  0  0  0
    3.1791   -5.7119    2.0879 C   0  0  0  0  0  0  0  0  0  0  0  0
    2.1361   -4.6015    1.0682 S   0  0  0  0  0  0  0  0  0  0  0  0
    0.8180   -4.3540    2.3061 C   0  0  0  0  0  0  0  0  0  0  0  0
   -7.0376   -8.7620   -1.6577 H   0  0  0  0  0  0  0  0  0  0  0  0
   -5.5989   -8.1480   -2.5894 H   0  0  0  0  0  0  0  0  0  0  0  0
   -5.6815   -9.8587   -2.0671 H   0  0  0  0  0  0  0  0  0  0  0  0
   -4.9499   -7.0465    1.0674 H   0  0  0  0  0  0  0  0  0  0  0  0
   -6.0888   -5.2088    0.3263 H   0  0  0  0  0  0  0  0  0  0  0  0
   -4.9987   -5.9551   -2.4464 H   0  0  0  0  0  0  0  0  0  0  0  0
   -5.4979   -4.3376   -1.8697 H   0  0  0  0  0  0  0  0  0  0  0  0
   -4.3460   -2.9267   -0.2631 H   0  0  0  0  0  0  0  0  0  0  0  0
   -4.2748   -4.1160    1.1009 H   0  0  0  0  0  0  0  0  0  0  0  0
   -1.6816   -5.0175    1.4322 H   0  0  0  0  0  0  0  0  0  0  0  0
    1.0068   -1.7086    1.8394 H   0  0  0  0  0  0  0  0  0  0  0  0
   -2.9151   -1.0865    0.1879 H   0  0  0  0  0  0  0  0  0  0  0  0
   -0.1317    0.3637   -0.1210 H   0  0  0  0  0  0  0  0  0  0  0  0
   -1.6146    0.8284    0.7530 H   0  0  0  0  0  0  0  0  0  0  0  0
   -0.4212    2.5152    3.8170 H   0  0  0  0  0  0  0  0  0  0  0  0
   -1.7729    1.7897    2.9021 H   0  0  0  0  0  0  0  0  0  0  0  0
   -1.2474    3.1862    0.9217 H   0  0  0  0  0  0  0  0  0  0  0  0
   -1.2458    5.0296    3.3377 H   0  0  0  0  0  0  0  0  0  0  0  0
   -3.1643    4.1066    0.3995 H   0  0  0  0  0  0  0  0  0  0  0  0
   -5.4777    3.1480    0.3313 H   0  0  0  0  0  0  0  0  0  0  0  0
   -5.5525    3.2349    2.1356 H   0  0  0  0  0  0  0  0  0  0  0  0
   -4.3183    2.1991    1.3363 H   0  0  0  0  0  0  0  0  0  0  0  0
   -4.1480    6.1439    0.1049 H   0  0  0  0  0  0  0  0  0  0  0  0
   -6.9960    4.9706    1.5009 H   0  0  0  0  0  0  0  0  0  0  0  0
   -8.0906    5.3105    3.7180 H   0  0  0  0  0  0  0  0  0  0  0  0
   -6.3893    4.7528    3.8889 H   0  0  0  0  0  0  0  0  0  0  0  0
   -6.8036    6.4915    4.1691 H   0  0  0  0  0  0  0  0  0  0  0  0
   -7.5763    7.8965    2.0956 H   0  0  0  0  0  0  0  0  0  0  0  0
  -10.1153    5.9747   -0.6470 H   0  0  0  0  0  0  0  0  0  0  0  0
   -8.1680    7.0430   -1.6536 H   0  0  0  0  0  0  0  0  0  0  0  0
   -7.0504    5.8763   -0.8513 H   0  0  0  0  0  0  0  0  0  0  0  0
   -8.2275    5.2990   -2.0897 H   0  0  0  0  0  0  0  0  0  0  0  0
   -8.2810    3.7870    0.0501 H   0  0  0  0  0  0  0  0  0  0  0  0
  -11.9310    2.8681    1.4773 H   0  0  0  0  0  0  0  0  0  0  0  0
  -12.0219    5.8549    0.7340 H   0  0  0  0  0  0  0  0  0  0  0  0
  -12.0055    5.2251    2.4276 H   0  0  0  0  0  0  0  0  0  0  0  0
  -13.3623    4.8219    1.3138 H   0  0  0  0  0  0  0  0  0  0  0  0
  -11.4257    4.2549   -1.1944 H   0  0  0  0  0  0  0  0  0  0  0  0
  -12.8217    0.7976    0.2899 H   0  0  0  0  0  0  0  0  0  0  0  0
  -15.3186    1.6117    0.0491 H   0  0  0  0  0  0  0  0  0  0  0  0
  -14.1862    2.6150    0.9954 H   0  0  0  0  0  0  0  0  0  0  0  0
  -14.6130    3.0915   -0.7023 H   0  0  0  0  0  0  0  0  0  0  0  0
  -14.0786    0.9795   -2.4953 H   0  0  0  0  0  0  0  0  0  0  0  0
  -12.3999   -1.3405   -0.2425 H   0  0  0  0  0  0  0  0  0  0  0  0
  -13.6155   -2.2583    1.6750 H   0  0  0  0  0  0  0  0  0  0  0  0
  -14.4250   -0.7191    1.2100 H   0  0  0  0  0  0  0  0  0  0  0  0
  -15.1667   -2.2953    0.7560 H   0  0  0  0  0  0  0  0  0  0  0  0
  -14.1911   -3.5890   -1.2914 H   0  0  0  0  0  0  0  0  0  0  0  0
  -11.1479   -2.9577    0.5214 H   0  0  0  0  0  0  0  0  0  0  0  0
  -10.7694   -5.9121   -0.0962 H   0  0  0  0  0  0  0  0  0  0  0  0
   -9.7250   -4.9763    1.0600 H   0  0  0  0  0  0  0  0  0  0  0  0
  -11.4970   -5.0882    1.3003 H   0  0  0  0  0  0  0  0  0  0  0  0
   -9.3226   -2.3052   -0.5868 H   0  0  0  0  0  0  0  0  0  0  0  0
   -9.8914   -5.7585   -2.0296 H   0  0  0  0  0  0  0  0  0  0  0  0
  -10.3292   -4.6930   -4.2454 H   0  0  0  0  0  0  0  0  0  0  0  0
   -8.5701   -4.7701   -4.6165 H   0  0  0  0  0  0  0  0  0  0  0  0
   -9.5088   -6.2890   -4.3722 H   0  0  0  0  0  0  0  0  0  0  0  0
   -7.2139   -6.2178   -3.0773 H   0  0  0  0  0  0  0  0  0  0  0  0
   -0.0036    4.9313   -0.2422 H   0  0  0  0  0  0  0  0  0  0  0  0
    2.4757    5.8464    1.2858 H   0  0  0  0  0  0  0  0  0  0  0  0
    1.8423    8.1325    0.7863 H   0  0  0  0  0  0  0  0  0  0  0  0
    0.4862    7.5844   -0.2974 H   0  0  0  0  0  0  0  0  0  0  0  0
    0.4112    7.3158    1.4884 H   0  0  0  0  0  0  0  0  0  0  0  0
    2.7526    7.9381   -1.2855 H   0  0  0  0  0  0  0  0  0  0  0  0
    3.7495    7.9243   -3.3262 H   0  0  0  0  0  0  0  0  0  0  0  0
    3.0615    6.2526   -4.9530 H   0  0  0  0  0  0  0  0  0  0  0  0
    1.6652    6.6543   -3.8873 H   0  0  0  0  0  0  0  0  0  0  0  0
    2.5662    5.1020   -3.6570 H   0  0  0  0  0  0  0  0  0  0  0  0
    5.2472    6.2638   -0.7857 H   0  0  0  0  0  0  0  0  0  0  0  0
    7.6584    5.8107   -2.4280 H   0  0  0  0  0  0  0  0  0  0  0  0
    6.1430    3.3852   -1.3076 H   0  0  0  0  0  0  0  0  0  0  0  0
    6.5260    3.7372   -3.0380 H   0  0  0  0  0  0  0  0  0  0  0  0
    7.8581    3.3529   -1.8897 H   0  0  0  0  0  0  0  0  0  0  0  0
    8.8779    6.6762    0.9809 H   0  0  0  0  0  0  0  0  0  0  0  0
   10.6172    7.2802   -0.2899 H   0  0  0  0  0  0  0  0  0  0  0  0
   10.3687    8.3595   -2.2594 H   0  0  0  0  0  0  0  0  0  0  0  0
    8.6900    8.4229   -1.6126 H   0  0  0  0  0  0  0  0  0  0  0  0
    9.1413    7.2678   -2.9305 H   0  0  0  0  0  0  0  0  0  0  0  0
   12.3119    4.2808   -1.4307 H   0  0  0  0  0  0  0  0  0  0  0  0
   11.4106    5.7020    1.0995 H   0  0  0  0  0  0  0  0  0  0  0  0
   12.9228    7.2453   -0.2591 H   0  0  0  0  0  0  0  0  0  0  0  0
   13.6500    6.7484    1.3134 H   0  0  0  0  0  0  0  0  0  0  0  0
   14.1932    5.9752   -0.2254 H   0  0  0  0  0  0  0  0  0  0  0  0
   14.1782    2.5667    0.8475 H   0  0  0  0  0  0  0  0  0  0  0  0
   11.2930    2.4062   -0.1122 H   0  0  0  0  0  0  0  0  0  0  0  0
   11.1350    0.2473    1.0790 H   0  0  0  0  0  0  0  0  0  0  0  0
   11.5673    1.5604    2.2281 H   0  0  0  0  0  0  0  0  0  0  0  0
   12.8442    0.4135    1.6659 H   0  0  0  0  0  0  0  0  0  0  0  0
   11.6362    0.1080   -2.4497 H   0  0  0  0  0  0  0  0  0  0  0  0
   12.7112   -1.3695   -0.0240 H   0  0  0  0  0  0  0  0  0  0  0  0
   14.0535   -2.7966   -1.6522 H   0  0  0  0  0  0  0  0  0  0  0  0
   13.6296   -1.6250   -2.9615 H   0  0  0  0  0  0  0  0  0  0  0  0
   14.6142   -1.0920   -1.5424 H   0  0  0  0  0  0  0  0  0  0  0  0
   11.4762   -4.4984   -1.4915 H   0  0  0  0  0  0  0  0  0  0  0  0
   11.3643   -2.9629    1.1549 H   0  0  0  0  0  0  0  0  0  0  0  0
   12.9620   -4.6080    2.0956 H   0  0  0  0  0  0  0  0  0  0  0  0
   13.0808   -5.4498    0.4994 H   0  0  0  0  0  0  0  0  0  0  0  0
   13.6834   -3.7564    0.6902 H   0  0  0  0  0  0  0  0  0  0  0  0
    9.2507   -4.7947   -0.7655 H   0  0  0  0  0  0  0  0  0  0  0  0
    8.2302   -6.7631    1.0533 H   0  0  0  0  0  0  0  0  0  0  0  0
   10.7392   -7.6865   -0.4780 H   0  0  0  0  0  0  0  0  0  0  0  0
   10.4619   -7.7075    1.3081 H   0  0  0  0  0  0  0  0  0  0  0  0
    9.5212   -8.8169    0.2472 H   0  0  0  0  0  0  0  0  0  0  0  0
    6.2898   -7.3563   -2.1257 H   0  0  0  0  0  0  0  0  0  0  0  0
    6.1222   -7.0738    0.8981 H   0  0  0  0  0  0  0  0  0  0  0  0
    5.4566   -9.5573   -0.8186 H   0  0  0  0  0  0  0  0  0  0  0  0
    5.1512   -9.3918    0.9524 H   0  0  0  0  0  0  0  0  0  0  0  0
    6.8368   -9.4120    0.3369 H   0  0  0  0  0  0  0  0  0  0  0  0
    2.4540   -7.8511   -0.2456 H   0  0  0  0  0  0  0  0  0  0  0  0
    1.7994   -7.3304    1.8787 H   0  0  0  0  0  0  0  0  0  0  0  0
    5.1097   -8.5330    4.1392 H   0  0  0  0  0  0  0  0  0  0  0  0
    5.1973   -6.9075    3.3858 H   0  0  0  0  0  0  0  0  0  0  0  0
    4.2420   -5.4612    1.8750 H   0  0  0  0  0  0  0  0  0  0  0  0
    3.0015   -5.5260    3.1720 H   0  0  0  0  0  0  0  0  0  0  0  0
    0.3883   -5.3363    2.5980 H   0  0  0  0  0  0  0  0  0  0  0  0
    1.2420   -3.8851    3.2193 H   0  0  0  0  0  0  0  0  0  0  0  0
  1  2  1  0
  2  3  2  0
  2  4  1  0
  4  5  1  0
  5  6  1  0
  6  7  1  0
  7  8  1  0
  8  9  1  0
  9 10  2  0
 10 11  1  0
 11 12  2  0
 12 13  1  0
 13 14  2  0
 13 15  1  0
 15 16  1  0
 16 17  1  0
 17 18  1  0
 18 19  1  0
 19 20  1  0
 20 21  2  0
 20 22  1  0
 22 23  1  0
 22 24  1  0
 24 25  1  0
 25 26  2  0
 25 27  1  0
 27 28  1  0
 27 29  1  0
 29 30  1  0
 30 31  2  0
 30 32  1  0
 32 33  1  0
 32 34  1  0
 34 35  1  0
 35 36  2  0
 35 37  1  0
 37 38  1  0
 37 39  1  0
 39 40  1  0
 40 41  2  0
 40 42  1  0
 42 43  1  0
 42 44  1  0
 44 45  1  0
 45 46  2  0
 45 47  1  0
 47 48  1  0
 47 49  1  0
 49 50  1  0
 50 51  2  0
 50 52  1  0
 52 53  1  0
 52 54  1  0
 54 55  1  0
 55 56  2  0
 55 57  1  0
 57 58  1  0
 57 59  1  0
 59 60  1  0
 60 61  2  0
 18 62  1  0
 62 63  2  0
 62 64  1  0
 64 65  1  0
 65 66  1  0
 65 67  1  0
 67 68  2  0
 67 69  1  0
 69 70  1  0
 70 71  1  0
 70 72  1  0
 72 73  2  0
 72 74  1  0
 74 75  1  0
 75 76  1  0
 75 77  1  0
 77 78  2  0
 77 79  1  0
 79 80  1  0
 80 81  1  0
 80 82  1  0
 82 83  2  0
 82 84  1  0
 84 85  1  0
 85 86  1  0
 85 87  1  0
 87 88  2  0
 87 89  1  0
 89 90  1  0
 90 91  1  0
 90 92  1  0
 92 93  2  0
 92 94  1  0
 94 95  1  0
 95 96  1  0
 95 97  1  0
 97 98  2  0
 97 99  1  0
 99100  1  0
100101  1  0
100102  1  0
102103  2  0
102104  1  0
104105  1  0
105106  1  0
105107  1  0
107108  2  0
107109  1  0
109110  1  0
110111  1  0
110112  1  0
112113  2  0
112114  1  0
114115  1  0
115116  1  0
116117  1  0
116118  2  0
115119  1  0
119120  1  0
120121  1  0
 60  5  1  0
 14  9  1  0
121 11  1  0
  1122  1  0
  1123  1  0
  1124  1  0
  4125  1  0
  5126  1  1
  6127  1  0
  6128  1  0
  8129  1  0
  8130  1  0
 10131  1  0
 12132  1  0
 14133  1  0
 15134  1  0
 15135  1  0
 17136  1  0
 17137  1  0
 18138  1  6
 19139  1  0
 22140  1  6
 23141  1  0
 23142  1  0
 23143  1  0
 24144  1  0
 27145  1  6
 28146  1  0
 28147  1  0
 28148  1  0
 29149  1  0
 32150  1  6
 33151  1  0
 33152  1  0
 33153  1  0
 34154  1  0
 37155  1  1
 38156  1  0
 38157  1  0
 38158  1  0
 39159  1  0
 42160  1  1
 43161  1  0
 43162  1  0
 43163  1  0
 44164  1  0
 47165  1  1
 48166  1  0
 48167  1  0
 48168  1  0
 49169  1  0
 52170  1  1
 53171  1  0
 53172  1  0
 53173  1  0
 54174  1  0
 57175  1  1
 58176  1  0
 58177  1  0
 58178  1  0
 59179  1  0
 64180  1  0
 65181  1  1
 66182  1  0
 66183  1  0
 66184  1  0
 69185  1  0
 70186  1  6
 71187  1  0
 71188  1  0
 71189  1  0
 74190  1  0
 75191  1  6
 76192  1  0
 76193  1  0
 76194  1  0
 79195  1  0
 80196  1  1
 81197  1  0
 81198  1  0
 81199  1  0
 84200  1  0
 85201  1  1
 86202  1  0
 86203  1  0
 86204  1  0
 89205  1  0
 90206  1  6
 91207  1  0
 91208  1  0
 91209  1  0
 94210  1  0
 95211  1  1
 96212  1  0
 96213  1  0
 96214  1  0
 99215  1  0
100216  1  1
101217  1  0
101218  1  0
101219  1  0
104220  1  0
105221  1  1
106222  1  0
106223  1  0
106224  1  0
109225  1  0
110226  1  1
111227  1  0
111228  1  0
111229  1  0
114230  1  0
115231  1  6
117232  1  0
117233  1  0
119234  1  0
119235  1  0
121236  1  0
121237  1  0
M  END
