
     RDKit          3D

227229  0  0  0  0  0  0  0  0999 V2000
   -4.7482    8.0213   -1.3362 C   0  0  0  0  0  0  0  0  0  0  0  0
   -5.2541    6.7707   -1.9993 C   0  0  0  0  0  0  0  0  0  0  0  0
   -5.6756    6.8516   -3.1847 O   0  0  0  0  0  0  0  0  0  0  0  0
   -5.2897    5.4989   -1.3305 N   0  0  0  0  0  0  0  0  0  0  0  0
   -4.5221    5.1911   -0.1195 C   0  0  2  0  0  0  0  0  0  0  0  0
   -4.1022    3.7051   -0.0751 C   0  0  0  0  0  0  0  0  0  0  0  0
   -3.4211    3.0877   -1.6657 S   0  0  0  0  0  0  0  0  0  0  0  0
   -1.8823    4.0738   -1.7266 C   0  0  0  0  0  0  0  0  0  0  0  0
   -0.8766    3.6095   -0.7102 C   0  0  0  0  0  0  0  0  0  0  0  0
   -0.2876    2.3428   -0.8401 C   0  0  0  0  0  0  0  0  0  0  0  0
    0.6805    1.9112    0.0818 C   0  0  0  0  0  0  0  0  0  0  0  0
    1.0346    2.7437    1.1511 C   0  0  0  0  0  0  0  0  0  0  0  0
    0.4748    4.0225    1.2723 C   0  0  0  0  0  0  0  0  0  0  0  0
   -0.4867    4.4484    0.3451 C   0  0  0  0  0  0  0  0  0  0  0  0
    0.9356    4.9367    2.3760 C   0  0  0  0  0  0  0  0  0  0  0  0
    2.7405    5.2255    2.3028 S   0  0  0  0  0  0  0  0  0  0  0  0
    2.7491    6.0416    0.6619 C   0  0  0  0  0  0  0  0  0  0  0  0
    4.1434    6.5624    0.2589 C   0  0  1  0  0  0  0  0  0  0  0  0
    4.6104    7.6181    1.2266 C   0  0  0  0  0  0  0  0  0  0  0  0
    5.3290    7.2745    2.4160 N   0  0  0  0  0  0  0  0  0  0  0  0
    4.3410    8.8252    0.9960 O   0  0  0  0  0  0  0  0  0  0  0  0
    5.1118    5.4613    0.1369 N   0  0  0  0  0  0  0  0  0  0  0  0
    6.3921    5.4942   -0.5357 C   0  0  0  0  0  0  0  0  0  0  0  0
    6.9846    4.3956   -0.7196 O   0  0  0  0  0  0  0  0  0  0  0  0
    7.1217    6.7549   -0.9715 C   0  0  1  0  0  0  0  0  0  0  0  0
    6.3082    7.6660   -1.8998 C   0  0  0  0  0  0  0  0  0  0  0  0
    7.6247    7.4909    0.1964 N   0  0  0  0  0  0  0  0  0  0  0  0
    8.7378    7.0631    0.9933 C   0  0  0  0  0  0  0  0  0  0  0  0
    8.7761    7.4204    2.2050 O   0  0  0  0  0  0  0  0  0  0  0  0
    9.9303    6.3502    0.3820 C   0  0  1  0  0  0  0  0  0  0  0  0
   10.7066    7.3466   -0.4859 C   0  0  0  0  0  0  0  0  0  0  0  0
   10.8185    5.8038    1.4185 N   0  0  0  0  0  0  0  0  0  0  0  0
   11.5418    4.5639    1.2996 C   0  0  0  0  0  0  0  0  0  0  0  0
   11.9359    3.9952    2.3558 O   0  0  0  0  0  0  0  0  0  0  0  0
   11.9324    3.9747   -0.0394 C   0  0  1  0  0  0  0  0  0  0  0  0
   13.4560    3.9208   -0.1890 C   0  0  0  0  0  0  0  0  0  0  0  0
   11.3202    2.6560   -0.2456 N   0  0  0  0  0  0  0  0  0  0  0  0
   11.4250    1.5626    0.6762 C   0  0  0  0  0  0  0  0  0  0  0  0
   10.4521    1.3200    1.4406 O   0  0  0  0  0  0  0  0  0  0  0  0
   12.6271    0.6478    0.6592 C   0  0  1  0  0  0  0  0  0  0  0  0
   12.8018   -0.1229    1.9739 C   0  0  0  0  0  0  0  0  0  0  0  0
   12.5670   -0.2848   -0.4747 N   0  0  0  0  0  0  0  0  0  0  0  0
   11.5354   -1.2817   -0.6318 C   0  0  0  0  0  0  0  0  0  0  0  0
   10.4005   -1.0892   -0.1180 O   0  0  0  0  0  0  0  0  0  0  0  0
   11.7734   -2.5915   -1.3535 C   0  0  1  0  0  0  0  0  0  0  0  0
   13.1081   -2.6724   -2.0996 C   0  0  0  0  0  0  0  0  0  0  0  0
   11.6873   -3.6858   -0.3890 N   0  0  0  0  0  0  0  0  0  0  0  0
   10.8708   -4.8313   -0.6480 C   0  0  0  0  0  0  0  0  0  0  0  0
   11.1191   -5.5568   -1.6501 O   0  0  0  0  0  0  0  0  0  0  0  0
    9.6593   -5.1259    0.1941 C   0  0  1  0  0  0  0  0  0  0  0  0
    9.8519   -4.7370    1.6606 C   0  0  0  0  0  0  0  0  0  0  0  0
    8.5157   -4.4058   -0.3591 N   0  0  0  0  0  0  0  0  0  0  0  0
    7.4143   -5.0726   -0.9897 C   0  0  0  0  0  0  0  0  0  0  0  0
    7.2076   -4.8666   -2.2159 O   0  0  0  0  0  0  0  0  0  0  0  0
    6.4660   -5.9619   -0.2166 C   0  0  1  0  0  0  0  0  0  0  0  0
    7.0604   -7.3579    0.0044 C   0  0  0  0  0  0  0  0  0  0  0  0
    6.0990   -5.3375    1.0624 N   0  0  0  0  0  0  0  0  0  0  0  0
    4.9893   -5.7130    1.9003 C   0  0  0  0  0  0  0  0  0  0  0  0
    4.8262   -5.1042    2.9950 O   0  0  0  0  0  0  0  0  0  0  0  0
    4.0192   -6.8186    1.5465 C   0  0  1  0  0  0  0  0  0  0  0  0
    4.3068   -8.0466    2.4232 C   0  0  0  0  0  0  0  0  0  0  0  0
    2.6390   -6.3653    1.7493 N   0  0  0  0  0  0  0  0  0  0  0  0
    1.9008   -5.5520    0.8147 C   0  0  0  0  0  0  0  0  0  0  0  0
    0.6606   -5.4104    0.9896 O   0  0  0  0  0  0  0  0  0  0  0  0
    2.5509   -4.9044   -0.3852 C   0  0  1  0  0  0  0  0  0  0  0  0
    2.1243   -5.6123   -1.6767 C   0  0  0  0  0  0  0  0  0  0  0  0
    2.2719   -3.4610   -0.4054 N   0  0  0  0  0  0  0  0  0  0  0  0
    1.3426   -2.8314   -1.2950 C   0  0  0  0  0  0  0  0  0  0  0  0
    1.7731   -2.2483   -2.3246 O   0  0  0  0  0  0  0  0  0  0  0  0
   -0.1231   -2.7968   -0.9619 C   0  0  1  0  0  0  0  0  0  0  0  0
   -0.5999   -1.3550   -0.7374 C   0  0  0  0  0  0  0  0  0  0  0  0
    0.1647   -0.6710    0.7799 S   0  0  0  0  0  0  0  0  0  0  0  0
    1.2743    0.5370   -0.0274 C   0  0  0  0  0  0  0  0  0  0  0  0
   -0.9011   -3.4323   -2.0331 N   0  0  0  0  0  0  0  0  0  0  0  0
   -2.1365   -4.1436   -1.8411 C   0  0  0  0  0  0  0  0  0  0  0  0
   -2.5678   -4.8533   -2.7864 O   0  0  0  0  0  0  0  0  0  0  0  0
   -2.9763   -4.0119   -0.5842 C   0  0  1  0  0  0  0  0  0  0  0  0
   -4.2410   -3.1959   -0.8609 C   0  0  0  0  0  0  0  0  0  0  0  0
   -3.2748   -5.3275    0.0033 N   0  0  0  0  0  0  0  0  0  0  0  0
   -3.9520   -6.3922   -0.6811 C   0  0  0  0  0  0  0  0  0  0  0  0
   -3.3138   -7.4473   -0.9519 O   0  0  0  0  0  0  0  0  0  0  0  0
   -5.4264   -6.3188   -0.9939 C   0  0  1  0  0  0  0  0  0  0  0  0
   -5.6483   -6.4503   -2.5022 C   0  0  0  0  0  0  0  0  0  0  0  0
   -6.1503   -7.3774   -0.2790 N   0  0  0  0  0  0  0  0  0  0  0  0
   -7.5270   -7.2952    0.1377 C   0  0  0  0  0  0  0  0  0  0  0  0
   -7.9625   -8.1562    0.9516 O   0  0  0  0  0  0  0  0  0  0  0  0
   -8.4945   -6.2725   -0.4121 C   0  0  1  0  0  0  0  0  0  0  0  0
   -9.4452   -6.9396   -1.4183 C   0  0  0  0  0  0  0  0  0  0  0  0
   -9.2131   -5.6177    0.6895 N   0  0  0  0  0  0  0  0  0  0  0  0
  -10.5707   -5.9019    1.0377 C   0  0  0  0  0  0  0  0  0  0  0  0
  -10.8473   -6.9814    1.6303 O   0  0  0  0  0  0  0  0  0  0  0  0
  -11.6599   -4.9111    0.7166 C   0  0  1  0  0  0  0  0  0  0  0  0
  -12.8019   -5.6186   -0.0210 C   0  0  0  0  0  0  0  0  0  0  0  0
  -12.1511   -4.2858    1.9531 N   0  0  0  0  0  0  0  0  0  0  0  0
  -12.8338   -3.0207    2.0313 C   0  0  0  0  0  0  0  0  0  0  0  0
  -13.0488   -2.5258    3.1724 O   0  0  0  0  0  0  0  0  0  0  0  0
  -13.3785   -2.2985    0.8213 C   0  0  1  0  0  0  0  0  0  0  0  0
  -14.8942   -2.5202    0.7338 C   0  0  0  0  0  0  0  0  0  0  0  0
  -13.0841   -0.8660    0.9116 N   0  0  0  0  0  0  0  0  0  0  0  0
  -11.7900   -0.3271    0.5903 C   0  0  0  0  0  0  0  0  0  0  0  0
  -10.8164   -1.0981    0.3757 O   0  0  0  0  0  0  0  0  0  0  0  0
  -11.6018    1.1662    0.4513 C   0  0  1  0  0  0  0  0  0  0  0  0
  -12.4955    1.6756   -0.6881 C   0  0  0  0  0  0  0  0  0  0  0  0
  -11.9236    1.8409    1.7210 N   0  0  0  0  0  0  0  0  0  0  0  0
  -11.7904    3.2538    1.9817 C   0  0  0  0  0  0  0  0  0  0  0  0
  -12.3792    3.7348    2.9917 O   0  0  0  0  0  0  0  0  0  0  0  0
  -10.9994    4.1911    1.1014 C   0  0  1  0  0  0  0  0  0  0  0  0
  -11.9332    5.2567    0.5123 C   0  0  0  0  0  0  0  0  0  0  0  0
   -9.9415    4.8368    1.8815 N   0  0  0  0  0  0  0  0  0  0  0  0
   -8.5593    4.4816    1.7281 C   0  0  0  0  0  0  0  0  0  0  0  0
   -8.0077    3.7864    2.6243 O   0  0  0  0  0  0  0  0  0  0  0  0
   -7.7129    5.0024    0.5873 C   0  0  1  0  0  0  0  0  0  0  0  0
   -8.5237    5.7508   -0.4715 C   0  0  0  0  0  0  0  0  0  0  0  0
   -6.6819    5.8948    1.1210 N   0  0  0  0  0  0  0  0  0  0  0  0
   -5.2819    5.5696    1.1301 C   0  0  0  0  0  0  0  0  0  0  0  0
   -4.6461    5.6662    2.2137 O   0  0  0  0  0  0  0  0  0  0  0  0
   -5.4886    8.8359   -1.4786 H   0  0  0  0  0  0  0  0  0  0  0  0
   -3.7869    8.3239   -1.8007 H   0  0  0  0  0  0  0  0  0  0  0  0
   -4.6027    7.8867   -0.2469 H   0  0  0  0  0  0  0  0  0  0  0  0
   -5.7820    4.7174   -1.8250 H   0  0  0  0  0  0  0  0  0  0  0  0
   -3.5938    5.7967   -0.1275 H   0  0  0  0  0  0  0  0  0  0  0  0
   -4.9904    3.0827    0.1685 H   0  0  0  0  0  0  0  0  0  0  0  0
   -3.3598    3.5473    0.7348 H   0  0  0  0  0  0  0  0  0  0  0  0
   -1.4395    3.9505   -2.7363 H   0  0  0  0  0  0  0  0  0  0  0  0
   -2.1062    5.1526   -1.6185 H   0  0  0  0  0  0  0  0  0  0  0  0
   -0.5732    1.7035   -1.6631 H   0  0  0  0  0  0  0  0  0  0  0  0
    1.7562    2.4012    1.8833 H   0  0  0  0  0  0  0  0  0  0  0  0
   -0.9223    5.4383    0.4349 H   0  0  0  0  0  0  0  0  0  0  0  0
    0.4106    5.9146    2.3467 H   0  0  0  0  0  0  0  0  0  0  0  0
    0.7008    4.4686    3.3533 H   0  0  0  0  0  0  0  0  0  0  0  0
    2.0312    6.8888    0.6715 H   0  0  0  0  0  0  0  0  0  0  0  0
    2.4086    5.3180   -0.1113 H   0  0  0  0  0  0  0  0  0  0  0  0
    3.9951    7.0117   -0.7433 H   0  0  0  0  0  0  0  0  0  0  0  0
    5.6874    8.0274    3.0433 H   0  0  0  0  0  0  0  0  0  0  0  0
    5.5536    6.2834    2.6476 H   0  0  0  0  0  0  0  0  0  0  0  0
    4.8061    4.5130    0.4573 H   0  0  0  0  0  0  0  0  0  0  0  0
    7.9875    6.4383   -1.5894 H   0  0  0  0  0  0  0  0  0  0  0  0
    5.7043    7.0610   -2.6112 H   0  0  0  0  0  0  0  0  0  0  0  0
    6.9965    8.3021   -2.4936 H   0  0  0  0  0  0  0  0  0  0  0  0
    5.6527    8.3574   -1.3373 H   0  0  0  0  0  0  0  0  0  0  0  0
    7.0994    8.3330    0.5233 H   0  0  0  0  0  0  0  0  0  0  0  0
    9.5575    5.5140   -0.2491 H   0  0  0  0  0  0  0  0  0  0  0  0
   10.0879    7.6614   -1.3506 H   0  0  0  0  0  0  0  0  0  0  0  0
   11.6397    6.8935   -0.8714 H   0  0  0  0  0  0  0  0  0  0  0  0
   10.9771    8.2433    0.1091 H   0  0  0  0  0  0  0  0  0  0  0  0
   10.9595    6.3427    2.3020 H   0  0  0  0  0  0  0  0  0  0  0  0
   11.5761    4.6292   -0.8596 H   0  0  0  0  0  0  0  0  0  0  0  0
   13.9367    3.4544    0.6970 H   0  0  0  0  0  0  0  0  0  0  0  0
   13.8590    4.9525   -0.2853 H   0  0  0  0  0  0  0  0  0  0  0  0
   13.7335    3.3508   -1.1020 H   0  0  0  0  0  0  0  0  0  0  0  0
   10.5600    2.5885   -0.9578 H   0  0  0  0  0  0  0  0  0  0  0  0
   13.5393    1.2652    0.5381 H   0  0  0  0  0  0  0  0  0  0  0  0
   11.9436   -0.8009    2.1535 H   0  0  0  0  0  0  0  0  0  0  0  0
   12.8841    0.5890    2.8202 H   0  0  0  0  0  0  0  0  0  0  0  0
   13.7311   -0.7277    1.9304 H   0  0  0  0  0  0  0  0  0  0  0  0
   13.3964   -0.3013   -1.1021 H   0  0  0  0  0  0  0  0  0  0  0  0
   10.9674   -2.7018   -2.1129 H   0  0  0  0  0  0  0  0  0  0  0  0
   13.9618   -2.6034   -1.3905 H   0  0  0  0  0  0  0  0  0  0  0  0
   13.1742   -1.8595   -2.8549 H   0  0  0  0  0  0  0  0  0  0  0  0
   13.1799   -3.6435   -2.6381 H   0  0  0  0  0  0  0  0  0  0  0  0
   12.1065   -3.5642    0.5607 H   0  0  0  0  0  0  0  0  0  0  0  0
    9.4848   -6.2196    0.1565 H   0  0  0  0  0  0  0  0  0  0  0  0
    8.9607   -5.0444    2.2513 H   0  0  0  0  0  0  0  0  0  0  0  0
    9.9816   -3.6397    1.7694 H   0  0  0  0  0  0  0  0  0  0  0  0
   10.7416   -5.2558    2.0801 H   0  0  0  0  0  0  0  0  0  0  0  0
    8.6163   -3.3781   -0.5220 H   0  0  0  0  0  0  0  0  0  0  0  0
    5.5611   -6.0735   -0.8460 H   0  0  0  0  0  0  0  0  0  0  0  0
    7.6856   -7.6643   -0.8617 H   0  0  0  0  0  0  0  0  0  0  0  0
    6.2501   -8.1078    0.0966 H   0  0  0  0  0  0  0  0  0  0  0  0
    7.6707   -7.3881    0.9304 H   0  0  0  0  0  0  0  0  0  0  0  0
    6.6602   -4.5212    1.4014 H   0  0  0  0  0  0  0  0  0  0  0  0
    4.1302   -7.1411    0.4914 H   0  0  0  0  0  0  0  0  0  0  0  0
    3.6249   -8.8773    2.1428 H   0  0  0  0  0  0  0  0  0  0  0  0
    5.3537   -8.3890    2.2821 H   0  0  0  0  0  0  0  0  0  0  0  0
    4.1572   -7.8040    3.4955 H   0  0  0  0  0  0  0  0  0  0  0  0
    2.1289   -6.6764    2.6108 H   0  0  0  0  0  0  0  0  0  0  0  0
    3.6446   -5.0075   -0.3205 H   0  0  0  0  0  0  0  0  0  0  0  0
    1.0264   -5.5441   -1.8285 H   0  0  0  0  0  0  0  0  0  0  0  0
    2.4061   -6.6869   -1.6289 H   0  0  0  0  0  0  0  0  0  0  0  0
    2.6440   -5.1631   -2.5479 H   0  0  0  0  0  0  0  0  0  0  0  0
    2.9895   -2.8368    0.0290 H   0  0  0  0  0  0  0  0  0  0  0  0
   -0.2635   -3.3666   -0.0227 H   0  0  0  0  0  0  0  0  0  0  0  0
   -0.4082   -0.7364   -1.6375 H   0  0  0  0  0  0  0  0  0  0  0  0
   -1.6947   -1.3480   -0.5794 H   0  0  0  0  0  0  0  0  0  0  0  0
    2.2503    0.5034    0.4996 H   0  0  0  0  0  0  0  0  0  0  0  0
    1.4938    0.2893   -1.0862 H   0  0  0  0  0  0  0  0  0  0  0  0
   -0.5242   -3.3961   -3.0107 H   0  0  0  0  0  0  0  0  0  0  0  0
   -2.4228   -3.4422    0.1879 H   0  0  0  0  0  0  0  0  0  0  0  0
   -3.9675   -2.1458   -1.0907 H   0  0  0  0  0  0  0  0  0  0  0  0
   -4.7945   -3.5965   -1.7343 H   0  0  0  0  0  0  0  0  0  0  0  0
   -4.8988   -3.1984    0.0349 H   0  0  0  0  0  0  0  0  0  0  0  0
   -2.7210   -5.6006    0.8438 H   0  0  0  0  0  0  0  0  0  0  0  0
   -5.8033   -5.3402   -0.6428 H   0  0  0  0  0  0  0  0  0  0  0  0
   -5.1031   -5.6491   -3.0443 H   0  0  0  0  0  0  0  0  0  0  0  0
   -5.2852   -7.4362   -2.8656 H   0  0  0  0  0  0  0  0  0  0  0  0
   -6.7218   -6.3595   -2.7565 H   0  0  0  0  0  0  0  0  0  0  0  0
   -5.6261   -8.2403   -0.0017 H   0  0  0  0  0  0  0  0  0  0  0  0
   -7.9653   -5.4769   -0.9687 H   0  0  0  0  0  0  0  0  0  0  0  0
  -10.0467   -7.7379   -0.9340 H   0  0  0  0  0  0  0  0  0  0  0  0
   -8.8665   -7.3958   -2.2489 H   0  0  0  0  0  0  0  0  0  0  0  0
  -10.1286   -6.1784   -1.8520 H   0  0  0  0  0  0  0  0  0  0  0  0
   -8.6868   -4.9477    1.2976 H   0  0  0  0  0  0  0  0  0  0  0  0
  -11.2175   -4.1314    0.0575 H   0  0  0  0  0  0  0  0  0  0  0  0
  -12.4064   -6.2195   -0.8665 H   0  0  0  0  0  0  0  0  0  0  0  0
  -13.5119   -4.8854   -0.4468 H   0  0  0  0  0  0  0  0  0  0  0  0
  -13.3561   -6.2888    0.6701 H   0  0  0  0  0  0  0  0  0  0  0  0
  -12.0236   -4.8045    2.8530 H   0  0  0  0  0  0  0  0  0  0  0  0
  -12.9319   -2.6807   -0.1166 H   0  0  0  0  0  0  0  0  0  0  0  0
  -15.2962   -2.0276   -0.1774 H   0  0  0  0  0  0  0  0  0  0  0  0
  -15.4071   -2.0953    1.6247 H   0  0  0  0  0  0  0  0  0  0  0  0
  -15.1304   -3.6041    0.6824 H   0  0  0  0  0  0  0  0  0  0  0  0
  -13.8523   -0.2032    1.1679 H   0  0  0  0  0  0  0  0  0  0  0  0
  -10.5370    1.3600    0.1945 H   0  0  0  0  0  0  0  0  0  0  0  0
  -13.5563    1.7173   -0.3671 H   0  0  0  0  0  0  0  0  0  0  0  0
  -12.1829    2.6853   -1.0197 H   0  0  0  0  0  0  0  0  0  0  0  0
  -12.4137    1.0082   -1.5734 H   0  0  0  0  0  0  0  0  0  0  0  0
  -12.3368    1.2715    2.4945 H   0  0  0  0  0  0  0  0  0  0  0  0
  -10.5377    3.6321    0.2632 H   0  0  0  0  0  0  0  0  0  0  0  0
  -11.3835    5.9274   -0.1761 H   0  0  0  0  0  0  0  0  0  0  0  0
  -12.3773    5.8773    1.3215 H   0  0  0  0  0  0  0  0  0  0  0  0
  -12.7563    4.7816   -0.0570 H   0  0  0  0  0  0  0  0  0  0  0  0
  -10.2145    5.3779    2.7367 H   0  0  0  0  0  0  0  0  0  0  0  0
   -7.2378    4.1245    0.0993 H   0  0  0  0  0  0  0  0  0  0  0  0
   -9.0827    6.5940   -0.0102 H   0  0  0  0  0  0  0  0  0  0  0  0
   -9.2221    5.0609   -0.9852 H   0  0  0  0  0  0  0  0  0  0  0  0
   -7.8561    6.1721   -1.2470 H   0  0  0  0  0  0  0  0  0  0  0  0
   -6.9899    6.6956    1.7188 H   0  0  0  0  0  0  0  0  0  0  0  0
  1  2  1  0
  2  3  2  0
  2  4  1  0
  4  5  1  0
  5  6  1  0
  6  7  1  0
  7  8  1  0
  8  9  1  0
  9 10  2  0
 10 11  1  0
 11 12  2  0
 12 13  1  0
 13 14  2  0
 13 15  1  0
 15 16  1  0
 16 17  1  0
 17 18  1  0
 18 19  1  0
 19 20  1  0
 19 21  2  0
 18 22  1  0
 22 23  1  0
 23 24  2  0
 23 25  1  0
 25 26  1  0
 25 27  1  0
 27 28  1  0
 28 29  2  0
 28 30  1  0
 30 31  1  0
 30 32  1  0
 32 33  1  0
 33 34  2  0
 33 35  1  0
 35 36  1  0
 35 37  1  0
 37 38  1  0
 38 39  2  0
 38 40  1  0
 40 41  1  0
 40 42  1  0
 42 43  1  0
 43 44  2  0
 43 45  1  0
 45 46  1  0
 45 47  1  0
 47 48  1  0
 48 49  2  0
 48 50  1  0
 50 51  1  0
 50 52  1  0
 52 53  1  0
 53 54  2  0
 53 55  1  0
 55 56  1  0
 55 57  1  0
 57 58  1  0
 58 59  2  0
 58 60  1  0
 60 61  1  0
 60 62  1  0
 62 63  1  0
 63 64  2  0
 63 65  1  0
 65 66  1  0
 65 67  1  0
 67 68  1  0
 68 69  2  0
 68 70  1  0
 70 71  1  0
 71 72  1  0
 72 73  1  0
 70 74  1  0
 74 75  1  0
 75 76  2  0
 75 77  1  0
 77 78  1  0
 77 79  1  0
 79 80  1  0
 80 81  2  0
 80 82  1  0
 82 83  1  0
 82 84  1  0
 84 85  1  0
 85 86  2  0
 85 87  1  0
 87 88  1  0
 87 89  1  0
 89 90  1  0
 90 91  2  0
 90 92  1  0
 92 93  1  0
 92 94  1  0
 94 95  1  0
 95 96  2  0
 95 97  1  0
 97 98  1  0
 97 99  1  0
 99100  1  0
100101  2  0
100102  1  0
102103  1  0
102104  1  0
104105  1  0
105106  2  0
105107  1  0
107108  1  0
107109  1  0
109110  1  0
110111  2  0
110112  1  0
112113  1  0
112114  1  0
114115  1  0
115116  2  0
115  5  1  0
 14  9  1  0
 73 11  1  0
  1117  1  0
  1118  1  0
  1119  1  0
  4120  1  0
  5121  1  6
  6122  1  0
  6123  1  0
  8124  1  0
  8125  1  0
 10126  1  0
 12127  1  0
 14128  1  0
 15129  1  0
 15130  1  0
 17131  1  0
 17132  1  0
 18133  1  6
 20134  1  0
 20135  1  0
 22136  1  0
 25137  1  6
 26138  1  0
 26139  1  0
 26140  1  0
 27141  1  0
 30142  1  6
 31143  1  0
 31144  1  0
 31145  1  0
 32146  1  0
 35147  1  6
 36148  1  0
 36149  1  0
 36150  1  0
 37151  1  0
 40152  1  6
 41153  1  0
 41154  1  0
 41155  1  0
 42156  1  0
 45157  1  6
 46158  1  0
 46159  1  0
 46160  1  0
 47161  1  0
 50162  1  1
 51163  1  0
 51164  1  0
 51165  1  0
 52166  1  0
 55167  1  6
 56168  1  0
 56169  1  0
 56170  1  0
 57171  1  0
 60172  1  6
 61173  1  0
 61174  1  0
 61175  1  0
 62176  1  0
 65177  1  1
 66178  1  0
 66179  1  0
 66180  1  0
 67181  1  0
 70182  1  1
 71183  1  0
 71184  1  0
 73185  1  0
 73186  1  0
 74187  1  0
 77188  1  1
 78189  1  0
 78190  1  0
 78191  1  0
 79192  1  0
 82193  1  1
 83194  1  0
 83195  1  0
 83196  1  0
 84197  1  0
 87198  1  6
 88199  1  0
 88200  1  0
 88201  1  0
 89202  1  0
 92203  1  6
 93204  1  0
 93205  1  0
 93206  1  0
 94207  1  0
 97208  1  6
 98209  1  0
 98210  1  0
 98211  1  0
 99212  1  0
102213  1  6
103214  1  0
103215  1  0
103216  1  0
104217  1  0
107218  1  6
108219  1  0
108220  1  0
108221  1  0
109222  1  0
112223  1  6
113224  1  0
113225  1  0
113226  1  0
114227  1  0
M  END
