
     RDKit          3D

177179  0  0  0  0  0  0  0  0999 V2000
    0.7190    8.5450   -1.8554 C   0  0  0  0  0  0  0  0  0  0  0  0
    1.9565    8.8672   -1.0757 C   0  0  0  0  0  0  0  0  0  0  0  0
    2.3502   10.0656   -1.0452 O   0  0  0  0  0  0  0  0  0  0  0  0
    2.7201    7.8669   -0.3791 N   0  0  0  0  0  0  0  0  0  0  0  0
    2.2069    6.5565    0.0455 C   0  0  2  0  0  0  0  0  0  0  0  0
    1.0138    6.7410    1.0077 C   0  0  0  0  0  0  0  0  0  0  0  0
    0.2717    5.1504    1.5316 S   0  0  0  0  0  0  0  0  0  0  0  0
   -0.5348    4.7315   -0.0566 C   0  0  0  0  0  0  0  0  0  0  0  0
   -1.5195    3.6179    0.1654 C   0  0  0  0  0  0  0  0  0  0  0  0
   -2.8973    3.8340   -0.0077 C   0  0  0  0  0  0  0  0  0  0  0  0
   -3.8214    2.8201    0.2847 C   0  0  0  0  0  0  0  0  0  0  0  0
   -3.3623    1.5857    0.7680 C   0  0  0  0  0  0  0  0  0  0  0  0
   -1.9814    1.3394    0.9110 C   0  0  0  0  0  0  0  0  0  0  0  0
   -1.0711    2.3659    0.6124 C   0  0  0  0  0  0  0  0  0  0  0  0
   -1.4659    0.0773    1.5722 C   0  0  0  0  0  0  0  0  0  0  0  0
   -2.5568   -1.3760    1.3124 S   0  0  0  0  0  0  0  0  0  0  0  0
   -1.5083   -2.2452    0.0909 C   0  0  0  0  0  0  0  0  0  0  0  0
   -2.3767   -3.2055   -0.7396 C   0  0  2  0  0  0  0  0  0  0  0  0
   -1.5303   -4.2385   -1.3460 N   0  0  0  0  0  0  0  0  0  0  0  0
   -1.5964   -5.6080   -0.9336 C   0  0  0  0  0  0  0  0  0  0  0  0
   -2.1527   -6.4482   -1.6863 O   0  0  0  0  0  0  0  0  0  0  0  0
   -0.9738   -6.0445    0.3704 C   0  0  1  0  0  0  0  0  0  0  0  0
   -1.9400   -5.8265    1.5404 C   0  0  0  0  0  0  0  0  0  0  0  0
   -0.5976   -7.4603    0.3076 N   0  0  0  0  0  0  0  0  0  0  0  0
    0.7448   -7.9335    0.4763 C   0  0  0  0  0  0  0  0  0  0  0  0
    0.9649   -8.8273    1.3366 O   0  0  0  0  0  0  0  0  0  0  0  0
    1.9047   -7.4551   -0.3707 C   0  0  1  0  0  0  0  0  0  0  0  0
    1.4793   -6.8418   -1.7104 C   0  0  0  0  0  0  0  0  0  0  0  0
    2.7315   -6.5099    0.3823 N   0  0  0  0  0  0  0  0  0  0  0  0
    3.9321   -6.9417    1.0276 C   0  0  0  0  0  0  0  0  0  0  0  0
    3.8769   -7.3598    2.2146 O   0  0  0  0  0  0  0  0  0  0  0  0
    5.2668   -6.8359    0.3374 C   0  0  1  0  0  0  0  0  0  0  0  0
    5.2737   -7.6274   -0.9750 C   0  0  0  0  0  0  0  0  0  0  0  0
    5.6099   -5.4274    0.1131 N   0  0  0  0  0  0  0  0  0  0  0  0
    6.8268   -5.0492   -0.5403 C   0  0  0  0  0  0  0  0  0  0  0  0
    6.8712   -5.0409   -1.8018 O   0  0  0  0  0  0  0  0  0  0  0  0
    8.0201   -4.5798    0.2602 C   0  0  1  0  0  0  0  0  0  0  0  0
    8.2109   -5.4517    1.5078 C   0  0  0  0  0  0  0  0  0  0  0  0
    9.2374   -4.6479   -0.5612 N   0  0  0  0  0  0  0  0  0  0  0  0
   10.2364   -3.6189   -0.6863 C   0  0  0  0  0  0  0  0  0  0  0  0
   11.3525   -3.9367   -1.1777 O   0  0  0  0  0  0  0  0  0  0  0  0
   10.0347   -2.2073   -0.1608 C   0  0  1  0  0  0  0  0  0  0  0  0
   10.4533   -2.1613    1.3149 C   0  0  0  0  0  0  0  0  0  0  0  0
   10.8182   -1.2297   -0.9396 N   0  0  0  0  0  0  0  0  0  0  0  0
   10.7335    0.2035   -0.8158 C   0  0  0  0  0  0  0  0  0  0  0  0
   11.5918    0.9076   -1.4128 O   0  0  0  0  0  0  0  0  0  0  0  0
    9.6583    0.9083   -0.0151 C   0  0  1  0  0  0  0  0  0  0  0  0
   10.2698    1.5926    1.2126 C   0  0  0  0  0  0  0  0  0  0  0  0
    8.9389    1.8601   -0.8748 N   0  0  0  0  0  0  0  0  0  0  0  0
    9.3761    3.2056   -1.1003 C   0  0  0  0  0  0  0  0  0  0  0  0
   10.1695    3.4522   -2.0487 O   0  0  0  0  0  0  0  0  0  0  0  0
    8.8127    4.3302   -0.2743 C   0  0  1  0  0  0  0  0  0  0  0  0
    9.9284    5.1524    0.3789 C   0  0  0  0  0  0  0  0  0  0  0  0
    7.9991    5.2089   -1.1250 N   0  0  0  0  0  0  0  0  0  0  0  0
    6.7038    5.7186   -0.7699 C   0  0  0  0  0  0  0  0  0  0  0  0
    6.3135    6.7989   -1.2949 O   0  0  0  0  0  0  0  0  0  0  0  0
    5.7941    5.0204    0.2213 C   0  0  1  0  0  0  0  0  0  0  0  0
    6.1295    5.4892    1.6446 C   0  0  0  0  0  0  0  0  0  0  0  0
    4.3884    5.2506   -0.1642 N   0  0  0  0  0  0  0  0  0  0  0  0
    3.3351    5.7595    0.6733 C   0  0  0  0  0  0  0  0  0  0  0  0
    3.3499    5.5524    1.9129 O   0  0  0  0  0  0  0  0  0  0  0  0
   -3.1051   -2.4412   -1.8257 C   0  0  0  0  0  0  0  0  0  0  0  0
   -2.4242   -1.8872   -2.7322 O   0  0  0  0  0  0  0  0  0  0  0  0
   -4.5340   -2.2719   -1.8431 N   0  0  0  0  0  0  0  0  0  0  0  0
   -5.5060   -3.0722   -1.0886 C   0  0  2  0  0  0  0  0  0  0  0  0
   -5.5063   -4.5183   -1.5975 C   0  0  0  0  0  0  0  0  0  0  0  0
   -6.8787   -2.4637   -1.2370 C   0  0  0  0  0  0  0  0  0  0  0  0
   -7.4375   -2.4607   -2.3687 O   0  0  0  0  0  0  0  0  0  0  0  0
   -7.4958   -1.7426   -0.1591 N   0  0  0  0  0  0  0  0  0  0  0  0
   -7.7753   -2.2999    1.1762 C   0  0  2  0  0  0  0  0  0  0  0  0
   -8.1010   -3.7968    1.1028 C   0  0  0  0  0  0  0  0  0  0  0  0
   -8.9275   -1.5660    1.8341 C   0  0  0  0  0  0  0  0  0  0  0  0
   -9.3614   -1.9580    2.9512 O   0  0  0  0  0  0  0  0  0  0  0  0
   -9.4902   -0.3847    1.2528 N   0  0  0  0  0  0  0  0  0  0  0  0
  -10.7534   -0.3242    0.5071 C   0  0  2  0  0  0  0  0  0  0  0  0
  -11.4928   -1.6706    0.4700 C   0  0  0  0  0  0  0  0  0  0  0  0
  -10.4916    0.1855   -0.8911 C   0  0  0  0  0  0  0  0  0  0  0  0
   -9.9995   -0.5888   -1.7570 O   0  0  0  0  0  0  0  0  0  0  0  0
  -10.8192    1.5321   -1.2697 N   0  0  0  0  0  0  0  0  0  0  0  0
  -10.4623    2.6968   -0.4502 C   0  0  2  0  0  0  0  0  0  0  0  0
  -11.6658    3.6357   -0.3630 C   0  0  0  0  0  0  0  0  0  0  0  0
   -9.2783    3.4215   -1.0581 C   0  0  0  0  0  0  0  0  0  0  0  0
   -9.0595    3.3111   -2.2947 O   0  0  0  0  0  0  0  0  0  0  0  0
   -8.4396    4.3143   -0.2913 N   0  0  0  0  0  0  0  0  0  0  0  0
   -8.4688    4.4333    1.1715 C   0  0  2  0  0  0  0  0  0  0  0  0
   -8.1904    5.8516    1.6196 C   0  0  0  0  0  0  0  0  0  0  0  0
   -7.0876    6.6041    1.1104 N   0  0  0  0  0  0  0  0  0  0  0  0
   -8.9626    6.3910    2.4584 O   0  0  0  0  0  0  0  0  0  0  0  0
   -7.5473    3.3886    1.8364 C   0  0  0  0  0  0  0  0  0  0  0  0
   -5.7663    3.8206    1.8656 S   0  0  0  0  0  0  0  0  0  0  0  0
   -5.2947    3.1060    0.2550 C   0  0  0  0  0  0  0  0  0  0  0  0
    0.5093    7.4622   -1.8949 H   0  0  0  0  0  0  0  0  0  0  0  0
    0.8399    8.9172   -2.8967 H   0  0  0  0  0  0  0  0  0  0  0  0
   -0.1530    9.0641   -1.3947 H   0  0  0  0  0  0  0  0  0  0  0  0
    3.7324    8.0957   -0.2039 H   0  0  0  0  0  0  0  0  0  0  0  0
    1.8738    6.0023   -0.8558 H   0  0  0  0  0  0  0  0  0  0  0  0
    0.2223    7.3711    0.5580 H   0  0  0  0  0  0  0  0  0  0  0  0
    1.3595    7.2814    1.9176 H   0  0  0  0  0  0  0  0  0  0  0  0
    0.2285    4.3945   -0.7878 H   0  0  0  0  0  0  0  0  0  0  0  0
   -1.0464    5.6333   -0.4580 H   0  0  0  0  0  0  0  0  0  0  0  0
   -3.2563    4.8089   -0.3177 H   0  0  0  0  0  0  0  0  0  0  0  0
   -4.0864    0.8358    1.0614 H   0  0  0  0  0  0  0  0  0  0  0  0
   -0.0091    2.2089    0.7738 H   0  0  0  0  0  0  0  0  0  0  0  0
   -1.4014    0.2624    2.6637 H   0  0  0  0  0  0  0  0  0  0  0  0
   -0.4308   -0.1456    1.2273 H   0  0  0  0  0  0  0  0  0  0  0  0
   -0.9786   -1.5274   -0.5720 H   0  0  0  0  0  0  0  0  0  0  0  0
   -0.7484   -2.8198    0.6597 H   0  0  0  0  0  0  0  0  0  0  0  0
   -3.0984   -3.6946   -0.0572 H   0  0  0  0  0  0  0  0  0  0  0  0
   -0.9507   -4.0097   -2.1883 H   0  0  0  0  0  0  0  0  0  0  0  0
   -0.0718   -5.4249    0.5561 H   0  0  0  0  0  0  0  0  0  0  0  0
   -1.5374   -6.3033    2.4574 H   0  0  0  0  0  0  0  0  0  0  0  0
   -2.9334   -6.2672    1.3145 H   0  0  0  0  0  0  0  0  0  0  0  0
   -2.0596   -4.7435    1.7512 H   0  0  0  0  0  0  0  0  0  0  0  0
   -1.3632   -8.1681    0.3900 H   0  0  0  0  0  0  0  0  0  0  0  0
    2.5061   -8.3627   -0.6178 H   0  0  0  0  0  0  0  0  0  0  0  0
    1.0603   -5.8306   -1.5701 H   0  0  0  0  0  0  0  0  0  0  0  0
    2.3601   -6.7504   -2.3778 H   0  0  0  0  0  0  0  0  0  0  0  0
    0.7312   -7.4908   -2.2139 H   0  0  0  0  0  0  0  0  0  0  0  0
    2.3074   -5.6119    0.6971 H   0  0  0  0  0  0  0  0  0  0  0  0
    6.0382   -7.2890    0.9982 H   0  0  0  0  0  0  0  0  0  0  0  0
    4.9318   -8.6667   -0.8025 H   0  0  0  0  0  0  0  0  0  0  0  0
    6.3060   -7.6771   -1.3788 H   0  0  0  0  0  0  0  0  0  0  0  0
    4.6242   -7.1415   -1.7283 H   0  0  0  0  0  0  0  0  0  0  0  0
    5.1278   -4.6894    0.6743 H   0  0  0  0  0  0  0  0  0  0  0  0
    7.8100   -3.5491    0.5981 H   0  0  0  0  0  0  0  0  0  0  0  0
    9.1053   -5.1254    2.0701 H   0  0  0  0  0  0  0  0  0  0  0  0
    8.3453   -6.5156    1.2228 H   0  0  0  0  0  0  0  0  0  0  0  0
    7.3336   -5.3587    2.1818 H   0  0  0  0  0  0  0  0  0  0  0  0
    9.4625   -5.5731   -0.9990 H   0  0  0  0  0  0  0  0  0  0  0  0
    8.9636   -1.9515   -0.2710 H   0  0  0  0  0  0  0  0  0  0  0  0
   10.1118   -3.0668    1.8566 H   0  0  0  0  0  0  0  0  0  0  0  0
   11.5551   -2.1013    1.4028 H   0  0  0  0  0  0  0  0  0  0  0  0
    9.9925   -1.2963    1.8266 H   0  0  0  0  0  0  0  0  0  0  0  0
   11.5080   -1.5791   -1.6449 H   0  0  0  0  0  0  0  0  0  0  0  0
    8.9098    0.1822    0.3509 H   0  0  0  0  0  0  0  0  0  0  0  0
    9.4831    2.1356    1.7740 H   0  0  0  0  0  0  0  0  0  0  0  0
   10.7269    0.8468    1.8915 H   0  0  0  0  0  0  0  0  0  0  0  0
   11.0661    2.3045    0.9097 H   0  0  0  0  0  0  0  0  0  0  0  0
    8.3027    1.4519   -1.5962 H   0  0  0  0  0  0  0  0  0  0  0  0
    8.2031    3.8846    0.5343 H   0  0  0  0  0  0  0  0  0  0  0  0
    9.4987    6.0371    0.8930 H   0  0  0  0  0  0  0  0  0  0  0  0
   10.4615    4.5482    1.1399 H   0  0  0  0  0  0  0  0  0  0  0  0
   10.6556    5.5107   -0.3765 H   0  0  0  0  0  0  0  0  0  0  0  0
    8.4790    5.6571   -1.9382 H   0  0  0  0  0  0  0  0  0  0  0  0
    5.9758    3.9276    0.1500 H   0  0  0  0  0  0  0  0  0  0  0  0
    5.8023    6.5345    1.8088 H   0  0  0  0  0  0  0  0  0  0  0  0
    5.6508    4.8158    2.3869 H   0  0  0  0  0  0  0  0  0  0  0  0
    7.2187    5.4466    1.8390 H   0  0  0  0  0  0  0  0  0  0  0  0
    4.1443    5.0863   -1.1700 H   0  0  0  0  0  0  0  0  0  0  0  0
   -4.8946   -1.5567   -2.5165 H   0  0  0  0  0  0  0  0  0  0  0  0
   -5.2343   -3.0546   -0.0092 H   0  0  0  0  0  0  0  0  0  0  0  0
   -5.6236   -4.5373   -2.7015 H   0  0  0  0  0  0  0  0  0  0  0  0
   -6.3359   -5.1026   -1.1486 H   0  0  0  0  0  0  0  0  0  0  0  0
   -4.5571   -5.0230   -1.3416 H   0  0  0  0  0  0  0  0  0  0  0  0
   -7.5480   -0.7046   -0.2935 H   0  0  0  0  0  0  0  0  0  0  0  0
   -6.8766   -2.1578    1.8114 H   0  0  0  0  0  0  0  0  0  0  0  0
   -8.9229   -3.9881    0.3804 H   0  0  0  0  0  0  0  0  0  0  0  0
   -7.2047   -4.3730    0.8145 H   0  0  0  0  0  0  0  0  0  0  0  0
   -8.4078   -4.1789    2.0999 H   0  0  0  0  0  0  0  0  0  0  0  0
   -8.9924    0.5131    1.4453 H   0  0  0  0  0  0  0  0  0  0  0  0
  -11.4260    0.3939    1.0267 H   0  0  0  0  0  0  0  0  0  0  0  0
  -12.4432   -1.5686   -0.0948 H   0  0  0  0  0  0  0  0  0  0  0  0
  -10.8705   -2.4500   -0.0190 H   0  0  0  0  0  0  0  0  0  0  0  0
  -11.7393   -1.9994    1.5009 H   0  0  0  0  0  0  0  0  0  0  0  0
  -11.0956    1.6916   -2.2633 H   0  0  0  0  0  0  0  0  0  0  0  0
  -10.2036    2.3585    0.5706 H   0  0  0  0  0  0  0  0  0  0  0  0
  -12.4961    3.1347    0.1840 H   0  0  0  0  0  0  0  0  0  0  0  0
  -11.4025    4.5684    0.1757 H   0  0  0  0  0  0  0  0  0  0  0  0
  -12.0240    3.9039   -1.3807 H   0  0  0  0  0  0  0  0  0  0  0  0
   -7.6740    4.7858   -0.8175 H   0  0  0  0  0  0  0  0  0  0  0  0
   -9.4974    4.2106    1.5275 H   0  0  0  0  0  0  0  0  0  0  0  0
   -6.9463    7.5892    1.4274 H   0  0  0  0  0  0  0  0  0  0  0  0
   -6.4131    6.2085    0.4256 H   0  0  0  0  0  0  0  0  0  0  0  0
   -7.6994    2.3977    1.3657 H   0  0  0  0  0  0  0  0  0  0  0  0
   -7.8654    3.2808    2.8972 H   0  0  0  0  0  0  0  0  0  0  0  0
   -5.8531    2.1679    0.0496 H   0  0  0  0  0  0  0  0  0  0  0  0
   -5.5209    3.8288   -0.5542 H   0  0  0  0  0  0  0  0  0  0  0  0
  1  2  1  0
  2  3  2  0
  2  4  1  0
  4  5  1  0
  5  6  1  0
  6  7  1  0
  7  8  1  0
  8  9  1  0
  9 10  2  0
 10 11  1  0
 11 12  2  0
 12 13  1  0
 13 14  2  0
 13 15  1  0
 15 16  1  0
 16 17  1  0
 17 18  1  0
 18 19  1  0
 19 20  1  0
 20 21  2  0
 20 22  1  0
 22 23  1  0
 22 24  1  0
 24 25  1  0
 25 26  2  0
 25 27  1  0
 27 28  1  0
 27 29  1  0
 29 30  1  0
 30 31  2  0
 30 32  1  0
 32 33  1  0
 32 34  1  0
 34 35  1  0
 35 36  2  0
 35 37  1  0
 37 38  1  0
 37 39  1  0
 39 40  1  0
 40 41  2  0
 40 42  1  0
 42 43  1  0
 42 44  1  0
 44 45  1  0
 45 46  2  0
 45 47  1  0
 47 48  1  0
 47 49  1  0
 49 50  1  0
 50 51  2  0
 50 52  1  0
 52 53  1  0
 52 54  1  0
 54 55  1  0
 55 56  2  0
 55 57  1  0
 57 58  1  0
 57 59  1  0
 59 60  1  0
 60 61  2  0
 18 62  1  0
 62 63  2  0
 62 64  1  0
 64 65  1  0
 65 66  1  0
 65 67  1  0
 67 68  2  0
 67 69  1  0
 69 70  1  0
 70 71  1  0
 70 72  1  0
 72 73  2  0
 72 74  1  0
 74 75  1  0
 75 76  1  0
 75 77  1  0
 77 78  2  0
 77 79  1  0
 79 80  1  0
 80 81  1  0
 80 82  1  0
 82 83  2  0
 82 84  1  0
 84 85  1  0
 85 86  1  0
 86 87  1  0
 86 88  2  0
 85 89  1  0
 89 90  1  0
 90 91  1  0
 60  5  1  0
 14  9  1  0
 91 11  1  0
  1 92  1  0
  1 93  1  0
  1 94  1  0
  4 95  1  0
  5 96  1  6
  6 97  1  0
  6 98  1  0
  8 99  1  0
  8100  1  0
 10101  1  0
 12102  1  0
 14103  1  0
 15104  1  0
 15105  1  0
 17106  1  0
 17107  1  0
 18108  1  1
 19109  1  0
 22110  1  1
 23111  1  0
 23112  1  0
 23113  1  0
 24114  1  0
 27115  1  6
 28116  1  0
 28117  1  0
 28118  1  0
 29119  1  0
 32120  1  1
 33121  1  0
 33122  1  0
 33123  1  0
 34124  1  0
 37125  1  1
 38126  1  0
 38127  1  0
 38128  1  0
 39129  1  0
 42130  1  1
 43131  1  0
 43132  1  0
 43133  1  0
 44134  1  0
 47135  1  1
 48136  1  0
 48137  1  0
 48138  1  0
 49139  1  0
 52140  1  1
 53141  1  0
 53142  1  0
 53143  1  0
 54144  1  0
 57145  1  1
 58146  1  0
 58147  1  0
 58148  1  0
 59149  1  0
 64150  1  0
 65151  1  1
 66152  1  0
 66153  1  0
 66154  1  0
 69155  1  0
 70156  1  1
 71157  1  0
 71158  1  0
 71159  1  0
 74160  1  0
 75161  1  1
 76162  1  0
 76163  1  0
 76164  1  0
 79165  1  0
 80166  1  1
 81167  1  0
 81168  1  0
 81169  1  0
 84170  1  0
 85171  1  1
 87172  1  0
 87173  1  0
 89174  1  0
 89175  1  0
 91176  1  0
 91177  1  0
M  END
