
     RDKit          3D

167169  0  0  0  0  0  0  0  0999 V2000
    0.6066    9.4501   -0.1969 C   0  0  0  0  0  0  0  0  0  0  0  0
    0.4451    8.2447   -1.0733 C   0  0  0  0  0  0  0  0  0  0  0  0
   -0.1655    8.3836   -2.1695 O   0  0  0  0  0  0  0  0  0  0  0  0
    1.0081    6.9573   -0.7551 N   0  0  0  0  0  0  0  0  0  0  0  0
    1.6302    6.5595    0.5213 C   0  0  2  0  0  0  0  0  0  0  0  0
    0.5603    6.4506    1.6434 C   0  0  0  0  0  0  0  0  0  0  0  0
   -0.1324    4.7612    1.8130 S   0  0  0  0  0  0  0  0  0  0  0  0
   -1.1685    4.7816    0.3013 C   0  0  0  0  0  0  0  0  0  0  0  0
   -2.2785    3.7779    0.4472 C   0  0  0  0  0  0  0  0  0  0  0  0
   -3.6060    4.2064    0.5515 C   0  0  0  0  0  0  0  0  0  0  0  0
   -4.6507    3.2867    0.7252 C   0  0  0  0  0  0  0  0  0  0  0  0
   -4.3557    1.9131    0.7555 C   0  0  0  0  0  0  0  0  0  0  0  0
   -3.0210    1.4662    0.6608 C   0  0  0  0  0  0  0  0  0  0  0  0
   -1.9884    2.4063    0.5081 C   0  0  0  0  0  0  0  0  0  0  0  0
   -2.7008    0.0064    0.9006 C   0  0  0  0  0  0  0  0  0  0  0  0
   -1.4351   -0.6418   -0.2618 S   0  0  0  0  0  0  0  0  0  0  0  0
   -2.5687   -1.5510   -1.3793 C   0  0  0  0  0  0  0  0  0  0  0  0
   -2.8645   -2.9710   -0.8729 C   0  0  2  0  0  0  0  0  0  0  0  0
   -1.6346   -3.7237   -0.6401 N   0  0  0  0  0  0  0  0  0  0  0  0
   -1.6310   -4.8785    0.2023 C   0  0  0  0  0  0  0  0  0  0  0  0
   -1.6754   -4.7218    1.4541 O   0  0  0  0  0  0  0  0  0  0  0  0
   -1.6953   -6.2706   -0.3762 C   0  0  1  0  0  0  0  0  0  0  0  0
   -0.9883   -6.3984   -1.7359 C   0  0  0  0  0  0  0  0  0  0  0  0
   -1.2128   -7.2905    0.5750 N   0  0  0  0  0  0  0  0  0  0  0  0
    0.1485   -7.5160    0.9889 C   0  0  0  0  0  0  0  0  0  0  0  0
    0.4201   -8.6016    1.5695 O   0  0  0  0  0  0  0  0  0  0  0  0
    1.2608   -6.5227    0.7646 C   0  0  1  0  0  0  0  0  0  0  0  0
    2.0127   -6.2486    2.0804 C   0  0  0  0  0  0  0  0  0  0  0  0
    2.1940   -7.0283   -0.2362 N   0  0  0  0  0  0  0  0  0  0  0  0
    3.1570   -6.1829   -0.8565 C   0  0  0  0  0  0  0  0  0  0  0  0
    2.7832   -5.3539   -1.7359 O   0  0  0  0  0  0  0  0  0  0  0  0
    4.6157   -6.2603   -0.4639 C   0  0  1  0  0  0  0  0  0  0  0  0
    5.0733   -7.7148   -0.3562 C   0  0  0  0  0  0  0  0  0  0  0  0
    5.4513   -5.5631   -1.4472 N   0  0  0  0  0  0  0  0  0  0  0  0
    6.6091   -4.7784   -1.1273 C   0  0  0  0  0  0  0  0  0  0  0  0
    7.5340   -4.6955   -1.9842 O   0  0  0  0  0  0  0  0  0  0  0  0
    6.7682   -4.0682    0.2073 C   0  0  1  0  0  0  0  0  0  0  0  0
    7.5783   -4.9514    1.1598 C   0  0  0  0  0  0  0  0  0  0  0  0
    7.4420   -2.7691    0.0315 N   0  0  0  0  0  0  0  0  0  0  0  0
    7.6822   -1.8727    1.1306 C   0  0  0  0  0  0  0  0  0  0  0  0
    6.9054   -1.8772    2.1157 O   0  0  0  0  0  0  0  0  0  0  0  0
    8.9402   -1.0409    1.1882 C   0  0  1  0  0  0  0  0  0  0  0  0
   10.1132   -1.9287    1.6186 C   0  0  0  0  0  0  0  0  0  0  0  0
    9.2328   -0.4357   -0.1139 N   0  0  0  0  0  0  0  0  0  0  0  0
    9.0286    0.9517   -0.4113 C   0  0  0  0  0  0  0  0  0  0  0  0
    8.4371    1.2453   -1.4960 O   0  0  0  0  0  0  0  0  0  0  0  0
    9.4864    2.0634    0.5173 C   0  0  1  0  0  0  0  0  0  0  0  0
   10.9461    1.8700    0.9197 C   0  0  0  0  0  0  0  0  0  0  0  0
    9.3340    3.3624   -0.1428 N   0  0  0  0  0  0  0  0  0  0  0  0
    8.5261    4.4034    0.4117 C   0  0  0  0  0  0  0  0  0  0  0  0
    8.5394    4.6078    1.6562 O   0  0  0  0  0  0  0  0  0  0  0  0
    7.5506    5.1871   -0.4397 C   0  0  1  0  0  0  0  0  0  0  0  0
    7.9671    5.2563   -1.9124 C   0  0  0  0  0  0  0  0  0  0  0  0
    6.2263    4.5661   -0.3313 N   0  0  0  0  0  0  0  0  0  0  0  0
    5.0544    5.2978    0.0336 C   0  0  0  0  0  0  0  0  0  0  0  0
    4.3172    4.8353    0.9453 O   0  0  0  0  0  0  0  0  0  0  0  0
    4.6424    6.5175   -0.7485 C   0  0  1  0  0  0  0  0  0  0  0  0
    3.7961    6.1484   -1.9627 C   0  0  0  0  0  0  0  0  0  0  0  0
    4.0138    7.5464    0.0950 N   0  0  0  0  0  0  0  0  0  0  0  0
    2.7969    7.4681    0.8715 C   0  0  0  0  0  0  0  0  0  0  0  0
    2.7004    8.2364    1.8699 O   0  0  0  0  0  0  0  0  0  0  0  0
   -3.7063   -3.7369   -1.8734 C   0  0  0  0  0  0  0  0  0  0  0  0
   -3.3934   -3.6945   -3.0932 O   0  0  0  0  0  0  0  0  0  0  0  0
   -4.7442   -4.6404   -1.4713 N   0  0  0  0  0  0  0  0  0  0  0  0
   -5.7725   -4.3255   -0.4727 C   0  0  2  0  0  0  0  0  0  0  0  0
   -6.3517   -5.6348    0.0776 C   0  0  0  0  0  0  0  0  0  0  0  0
   -6.8719   -3.4845   -1.0922 C   0  0  0  0  0  0  0  0  0  0  0  0
   -6.8099   -3.1869   -2.3172 O   0  0  0  0  0  0  0  0  0  0  0  0
   -8.0263   -3.0590   -0.3431 N   0  0  0  0  0  0  0  0  0  0  0  0
   -7.9958   -2.7118    1.0829 C   0  0  2  0  0  0  0  0  0  0  0  0
   -9.2568   -3.2202    1.7918 C   0  0  0  0  0  0  0  0  0  0  0  0
   -7.8165   -1.2224    1.2670 C   0  0  0  0  0  0  0  0  0  0  0  0
   -7.3028   -0.8098    2.3419 O   0  0  0  0  0  0  0  0  0  0  0  0
   -8.1607   -0.2716    0.2498 N   0  0  0  0  0  0  0  0  0  0  0  0
   -9.5413   -0.1026   -0.2184 C   0  0  2  0  0  0  0  0  0  0  0  0
   -9.5726    0.2469   -1.7087 C   0  0  0  0  0  0  0  0  0  0  0  0
  -10.2750    0.8860    0.6659 C   0  0  0  0  0  0  0  0  0  0  0  0
  -10.8262    0.4495    1.7166 O   0  0  0  0  0  0  0  0  0  0  0  0
  -10.4150    2.2799    0.3423 N   0  0  0  0  0  0  0  0  0  0  0  0
   -9.2843    3.1652    0.0418 C   0  0  1  0  0  0  0  0  0  0  0  0
   -9.7463    4.2548   -0.8909 C   0  0  0  0  0  0  0  0  0  0  0  0
   -9.5308    4.1352   -2.2962 N   0  0  0  0  0  0  0  0  0  0  0  0
  -10.3501    5.2777   -0.4423 O   0  0  0  0  0  0  0  0  0  0  0  0
   -8.6877    3.7455    1.3518 C   0  0  0  0  0  0  0  0  0  0  0  0
   -7.1766    2.8441    1.8558 S   0  0  0  0  0  0  0  0  0  0  0  0
   -6.0783    3.7917    0.7454 C   0  0  0  0  0  0  0  0  0  0  0  0
    0.0523   10.3174   -0.6392 H   0  0  0  0  0  0  0  0  0  0  0  0
    0.1813    9.2610    0.8064 H   0  0  0  0  0  0  0  0  0  0  0  0
    1.6737    9.7258   -0.1237 H   0  0  0  0  0  0  0  0  0  0  0  0
    0.8955    6.2129   -1.4824 H   0  0  0  0  0  0  0  0  0  0  0  0
    2.0458    5.5404    0.3949 H   0  0  0  0  0  0  0  0  0  0  0  0
    1.0048    6.6840    2.6399 H   0  0  0  0  0  0  0  0  0  0  0  0
   -0.2696    7.1744    1.4973 H   0  0  0  0  0  0  0  0  0  0  0  0
   -0.5419    4.5170   -0.5698 H   0  0  0  0  0  0  0  0  0  0  0  0
   -1.5824    5.8015    0.1291 H   0  0  0  0  0  0  0  0  0  0  0  0
   -3.8273    5.2733    0.5283 H   0  0  0  0  0  0  0  0  0  0  0  0
   -5.1473    1.1887    0.8822 H   0  0  0  0  0  0  0  0  0  0  0  0
   -0.9523    2.0858    0.4638 H   0  0  0  0  0  0  0  0  0  0  0  0
   -3.6189   -0.6182    0.8719 H   0  0  0  0  0  0  0  0  0  0  0  0
   -2.2855   -0.0740    1.9313 H   0  0  0  0  0  0  0  0  0  0  0  0
   -3.5086   -0.9778   -1.5220 H   0  0  0  0  0  0  0  0  0  0  0  0
   -2.0635   -1.6079   -2.3724 H   0  0  0  0  0  0  0  0  0  0  0  0
   -3.3947   -2.8669    0.0895 H   0  0  0  0  0  0  0  0  0  0  0  0
   -0.7576   -3.4950   -1.1705 H   0  0  0  0  0  0  0  0  0  0  0  0
   -2.7648   -6.4709   -0.5647 H   0  0  0  0  0  0  0  0  0  0  0  0
    0.0636   -6.0843   -1.6896 H   0  0  0  0  0  0  0  0  0  0  0  0
   -1.5165   -5.7885   -2.5030 H   0  0  0  0  0  0  0  0  0  0  0  0
   -1.0234   -7.4597   -2.0668 H   0  0  0  0  0  0  0  0  0  0  0  0
   -1.9283   -7.9821    0.9182 H   0  0  0  0  0  0  0  0  0  0  0  0
    0.8577   -5.5487    0.4211 H   0  0  0  0  0  0  0  0  0  0  0  0
    1.2955   -5.9754    2.8879 H   0  0  0  0  0  0  0  0  0  0  0  0
    2.7317   -5.4107    1.9425 H   0  0  0  0  0  0  0  0  0  0  0  0
    2.5784   -7.1557    2.4014 H   0  0  0  0  0  0  0  0  0  0  0  0
    2.1076   -8.0124   -0.5929 H   0  0  0  0  0  0  0  0  0  0  0  0
    4.7096   -5.8019    0.5388 H   0  0  0  0  0  0  0  0  0  0  0  0
    6.1570   -7.7539   -0.1065 H   0  0  0  0  0  0  0  0  0  0  0  0
    4.5124   -8.2424    0.4440 H   0  0  0  0  0  0  0  0  0  0  0  0
    4.9105   -8.2449   -1.3238 H   0  0  0  0  0  0  0  0  0  0  0  0
    5.3649   -5.8691   -2.4450 H   0  0  0  0  0  0  0  0  0  0  0  0
    5.7699   -3.8675    0.6435 H   0  0  0  0  0  0  0  0  0  0  0  0
    8.5977   -5.1474    0.7471 H   0  0  0  0  0  0  0  0  0  0  0  0
    7.6812   -4.4566    2.1563 H   0  0  0  0  0  0  0  0  0  0  0  0
    7.0587   -5.9174    1.3283 H   0  0  0  0  0  0  0  0  0  0  0  0
    7.7771   -2.4824   -0.9167 H   0  0  0  0  0  0  0  0  0  0  0  0
    8.8018   -0.2474    1.9569 H   0  0  0  0  0  0  0  0  0  0  0  0
   11.0668   -1.3666    1.5918 H   0  0  0  0  0  0  0  0  0  0  0  0
    9.9492   -2.3056    2.6542 H   0  0  0  0  0  0  0  0  0  0  0  0
   10.2008   -2.8020    0.9299 H   0  0  0  0  0  0  0  0  0  0  0  0
    9.4817   -1.0551   -0.9211 H   0  0  0  0  0  0  0  0  0  0  0  0
    8.8599    2.0247    1.4376 H   0  0  0  0  0  0  0  0  0  0  0  0
   11.5937    1.7378    0.0209 H   0  0  0  0  0  0  0  0  0  0  0  0
   11.2981    2.7489    1.4916 H   0  0  0  0  0  0  0  0  0  0  0  0
   11.0570    0.9832    1.5768 H   0  0  0  0  0  0  0  0  0  0  0  0
    9.7978    3.5115   -1.0650 H   0  0  0  0  0  0  0  0  0  0  0  0
    7.5195    6.2325   -0.0468 H   0  0  0  0  0  0  0  0  0  0  0  0
    7.9223    4.2572   -2.3828 H   0  0  0  0  0  0  0  0  0  0  0  0
    9.0089    5.6593   -1.9965 H   0  0  0  0  0  0  0  0  0  0  0  0
    7.3049    5.9561   -2.4640 H   0  0  0  0  0  0  0  0  0  0  0  0
    6.1745    3.5184   -0.2864 H   0  0  0  0  0  0  0  0  0  0  0  0
    5.5636    6.9876   -1.1552 H   0  0  0  0  0  0  0  0  0  0  0  0
    3.0296    5.3968   -1.7055 H   0  0  0  0  0  0  0  0  0  0  0  0
    4.4505    5.6972   -2.7433 H   0  0  0  0  0  0  0  0  0  0  0  0
    3.3271    7.0561   -2.3941 H   0  0  0  0  0  0  0  0  0  0  0  0
    4.5787    8.4228    0.2535 H   0  0  0  0  0  0  0  0  0  0  0  0
   -4.9015   -5.4603   -2.0888 H   0  0  0  0  0  0  0  0  0  0  0  0
   -5.3301   -3.7798    0.3818 H   0  0  0  0  0  0  0  0  0  0  0  0
   -7.1131   -5.4530    0.8590 H   0  0  0  0  0  0  0  0  0  0  0  0
   -6.8275   -6.2308   -0.7310 H   0  0  0  0  0  0  0  0  0  0  0  0
   -5.5424   -6.2468    0.5421 H   0  0  0  0  0  0  0  0  0  0  0  0
   -8.8746   -2.8246   -0.8940 H   0  0  0  0  0  0  0  0  0  0  0  0
   -7.1374   -3.2115    1.5805 H   0  0  0  0  0  0  0  0  0  0  0  0
   -9.1983   -2.9853    2.8768 H   0  0  0  0  0  0  0  0  0  0  0  0
   -9.3258   -4.3204    1.6652 H   0  0  0  0  0  0  0  0  0  0  0  0
  -10.1654   -2.7489    1.3683 H   0  0  0  0  0  0  0  0  0  0  0  0
   -7.4979    0.5211    0.1071 H   0  0  0  0  0  0  0  0  0  0  0  0
  -10.0918   -1.0622   -0.1326 H   0  0  0  0  0  0  0  0  0  0  0  0
   -8.8252    1.0181   -1.9650 H   0  0  0  0  0  0  0  0  0  0  0  0
   -9.3145   -0.6521   -2.3045 H   0  0  0  0  0  0  0  0  0  0  0  0
  -10.5840    0.5907   -2.0155 H   0  0  0  0  0  0  0  0  0  0  0  0
  -11.2817    2.7384    0.7164 H   0  0  0  0  0  0  0  0  0  0  0  0
   -8.4986    2.6008   -0.4841 H   0  0  0  0  0  0  0  0  0  0  0  0
   -9.8092    4.9100   -2.9457 H   0  0  0  0  0  0  0  0  0  0  0  0
   -9.1649    3.2369   -2.6985 H   0  0  0  0  0  0  0  0  0  0  0  0
   -8.4378    4.8195    1.2328 H   0  0  0  0  0  0  0  0  0  0  0  0
   -9.4349    3.7037    2.1789 H   0  0  0  0  0  0  0  0  0  0  0  0
   -6.0824    4.8495    1.0876 H   0  0  0  0  0  0  0  0  0  0  0  0
   -6.4608    3.7703   -0.2892 H   0  0  0  0  0  0  0  0  0  0  0  0
  1  2  1  0
  2  3  2  0
  2  4  1  0
  4  5  1  0
  5  6  1  0
  6  7  1  0
  7  8  1  0
  8  9  1  0
  9 10  2  0
 10 11  1  0
 11 12  2  0
 12 13  1  0
 13 14  2  0
 13 15  1  0
 15 16  1  0
 16 17  1  0
 17 18  1  0
 18 19  1  0
 19 20  1  0
 20 21  2  0
 20 22  1  0
 22 23  1  0
 22 24  1  0
 24 25  1  0
 25 26  2  0
 25 27  1  0
 27 28  1  0
 27 29  1  0
 29 30  1  0
 30 31  2  0
 30 32  1  0
 32 33  1  0
 32 34  1  0
 34 35  1  0
 35 36  2  0
 35 37  1  0
 37 38  1  0
 37 39  1  0
 39 40  1  0
 40 41  2  0
 40 42  1  0
 42 43  1  0
 42 44  1  0
 44 45  1  0
 45 46  2  0
 45 47  1  0
 47 48  1  0
 47 49  1  0
 49 50  1  0
 50 51  2  0
 50 52  1  0
 52 53  1  0
 52 54  1  0
 54 55  1  0
 55 56  2  0
 55 57  1  0
 57 58  1  0
 57 59  1  0
 59 60  1  0
 60 61  2  0
 18 62  1  0
 62 63  2  0
 62 64  1  0
 64 65  1  0
 65 66  1  0
 65 67  1  0
 67 68  2  0
 67 69  1  0
 69 70  1  0
 70 71  1  0
 70 72  1  0
 72 73  2  0
 72 74  1  0
 74 75  1  0
 75 76  1  0
 75 77  1  0
 77 78  2  0
 77 79  1  0
 79 80  1  0
 80 81  1  0
 81 82  1  0
 81 83  2  0
 80 84  1  0
 84 85  1  0
 85 86  1  0
 60  5  1  0
 14  9  1  0
 86 11  1  0
  1 87  1  0
  1 88  1  0
  1 89  1  0
  4 90  1  0
  5 91  1  6
  6 92  1  0
  6 93  1  0
  8 94  1  0
  8 95  1  0
 10 96  1  0
 12 97  1  0
 14 98  1  0
 15 99  1  0
 15100  1  0
 17101  1  0
 17102  1  0
 18103  1  1
 19104  1  0
 22105  1  6
 23106  1  0
 23107  1  0
 23108  1  0
 24109  1  0
 27110  1  6
 28111  1  0
 28112  1  0
 28113  1  0
 29114  1  0
 32115  1  1
 33116  1  0
 33117  1  0
 33118  1  0
 34119  1  0
 37120  1  1
 38121  1  0
 38122  1  0
 38123  1  0
 39124  1  0
 42125  1  1
 43126  1  0
 43127  1  0
 43128  1  0
 44129  1  0
 47130  1  1
 48131  1  0
 48132  1  0
 48133  1  0
 49134  1  0
 52135  1  1
 53136  1  0
 53137  1  0
 53138  1  0
 54139  1  0
 57140  1  6
 58141  1  0
 58142  1  0
 58143  1  0
 59144  1  0
 64145  1  0
 65146  1  1
 66147  1  0
 66148  1  0
 66149  1  0
 69150  1  0
 70151  1  1
 71152  1  0
 71153  1  0
 71154  1  0
 74155  1  0
 75156  1  6
 76157  1  0
 76158  1  0
 76159  1  0
 79160  1  0
 80161  1  6
 82162  1  0
 82163  1  0
 84164  1  0
 84165  1  0
 86166  1  0
 86167  1  0
M  END
