
     RDKit          3D

177179  0  0  0  0  0  0  0  0999 V2000
    1.0365    9.9394    0.0890 C   0  0  0  0  0  0  0  0  0  0  0  0
    2.2642    9.7942   -0.7557 C   0  0  0  0  0  0  0  0  0  0  0  0
    2.9960   10.8100   -0.9115 O   0  0  0  0  0  0  0  0  0  0  0  0
    2.6200    8.5791   -1.4417 N   0  0  0  0  0  0  0  0  0  0  0  0
    2.5090    7.1965   -0.9416 C   0  0  2  0  0  0  0  0  0  0  0  0
    1.1667    6.5594   -1.3165 C   0  0  0  0  0  0  0  0  0  0  0  0
    1.1808    4.7662   -0.9234 S   0  0  0  0  0  0  0  0  0  0  0  0
   -0.0269    4.7908    0.4590 C   0  0  0  0  0  0  0  0  0  0  0  0
   -1.1281    3.8246    0.1276 C   0  0  0  0  0  0  0  0  0  0  0  0
   -2.1502    4.2056   -0.7500 C   0  0  0  0  0  0  0  0  0  0  0  0
   -3.1176    3.2830   -1.1705 C   0  0  0  0  0  0  0  0  0  0  0  0
   -3.0198    1.9446   -0.7405 C   0  0  0  0  0  0  0  0  0  0  0  0
   -2.0179    1.5570    0.1675 C   0  0  0  0  0  0  0  0  0  0  0  0
   -1.0737    2.5047    0.5962 C   0  0  0  0  0  0  0  0  0  0  0  0
   -1.9276    0.1344    0.6547 C   0  0  0  0  0  0  0  0  0  0  0  0
   -0.4596   -0.6757   -0.0721 S   0  0  0  0  0  0  0  0  0  0  0  0
   -1.3396   -1.8985   -1.1191 C   0  0  0  0  0  0  0  0  0  0  0  0
   -1.4171   -3.2977   -0.4566 C   0  0  2  0  0  0  0  0  0  0  0  0
   -1.9636   -4.2742   -1.4081 N   0  0  0  0  0  0  0  0  0  0  0  0
   -1.9004   -5.7068   -1.2513 C   0  0  0  0  0  0  0  0  0  0  0  0
   -2.7696   -6.4083   -1.8341 O   0  0  0  0  0  0  0  0  0  0  0  0
   -0.8399   -6.4042   -0.4127 C   0  0  1  0  0  0  0  0  0  0  0  0
   -1.4486   -6.8193    0.9303 C   0  0  0  0  0  0  0  0  0  0  0  0
   -0.3323   -7.5834   -1.1285 N   0  0  0  0  0  0  0  0  0  0  0  0
    1.0265   -8.0466   -1.0602 C   0  0  0  0  0  0  0  0  0  0  0  0
    1.5746   -8.4518   -2.1238 O   0  0  0  0  0  0  0  0  0  0  0  0
    1.7537   -8.1957    0.2563 C   0  0  1  0  0  0  0  0  0  0  0  0
    1.1873   -9.4095    1.0114 C   0  0  0  0  0  0  0  0  0  0  0  0
    3.1947   -8.3974    0.0312 N   0  0  0  0  0  0  0  0  0  0  0  0
    4.1226   -7.3647   -0.3385 C   0  0  0  0  0  0  0  0  0  0  0  0
    5.2206   -7.7071   -0.8522 O   0  0  0  0  0  0  0  0  0  0  0  0
    3.8533   -5.9018   -0.0449 C   0  0  1  0  0  0  0  0  0  0  0  0
    4.0777   -5.5994    1.4412 C   0  0  0  0  0  0  0  0  0  0  0  0
    4.6354   -5.0041   -0.9161 N   0  0  0  0  0  0  0  0  0  0  0  0
    6.0638   -5.0070   -1.0670 C   0  0  0  0  0  0  0  0  0  0  0  0
    6.5534   -5.2772   -2.2017 O   0  0  0  0  0  0  0  0  0  0  0  0
    6.9873   -4.6315    0.0598 C   0  0  1  0  0  0  0  0  0  0  0  0
    7.8670   -5.8169    0.4702 C   0  0  0  0  0  0  0  0  0  0  0  0
    7.8471   -3.5123   -0.3478 N   0  0  0  0  0  0  0  0  0  0  0  0
    7.7670   -2.2159    0.2677 C   0  0  0  0  0  0  0  0  0  0  0  0
    6.7223   -1.8758    0.8891 O   0  0  0  0  0  0  0  0  0  0  0  0
    8.9285   -1.2541    0.2071 C   0  0  1  0  0  0  0  0  0  0  0  0
   10.2028   -1.9087    0.7422 C   0  0  0  0  0  0  0  0  0  0  0  0
    9.1412   -0.8001   -1.1738 N   0  0  0  0  0  0  0  0  0  0  0  0
    9.4430    0.5556   -1.5574 C   0  0  0  0  0  0  0  0  0  0  0  0
    9.3482    0.8688   -2.7732 O   0  0  0  0  0  0  0  0  0  0  0  0
    9.8486    1.6164   -0.5512 C   0  0  1  0  0  0  0  0  0  0  0  0
   11.0052    2.4719   -1.0899 C   0  0  0  0  0  0  0  0  0  0  0  0
    8.7060    2.4767   -0.2246 N   0  0  0  0  0  0  0  0  0  0  0  0
    8.7311    3.3640    0.9080 C   0  0  0  0  0  0  0  0  0  0  0  0
    9.4279    3.0580    1.9137 O   0  0  0  0  0  0  0  0  0  0  0  0
    7.9757    4.6780    0.9267 C   0  0  1  0  0  0  0  0  0  0  0  0
    8.9591    5.8410    1.0669 C   0  0  0  0  0  0  0  0  0  0  0  0
    7.1644    4.8693   -0.2822 N   0  0  0  0  0  0  0  0  0  0  0  0
    5.7873    5.2744   -0.2514 C   0  0  0  0  0  0  0  0  0  0  0  0
    4.9692    4.7096   -1.0211 O   0  0  0  0  0  0  0  0  0  0  0  0
    5.3499    6.4705    0.5683 C   0  0  1  0  0  0  0  0  0  0  0  0
    5.6237    7.7744   -0.1946 C   0  0  0  0  0  0  0  0  0  0  0  0
    3.9508    6.3176    1.0058 N   0  0  0  0  0  0  0  0  0  0  0  0
    2.8166    7.0677    0.5392 C   0  0  0  0  0  0  0  0  0  0  0  0
    1.9977    7.5071    1.3898 O   0  0  0  0  0  0  0  0  0  0  0  0
   -2.2247   -3.3034    0.8283 C   0  0  0  0  0  0  0  0  0  0  0  0
   -1.6312   -3.0638    1.9168 O   0  0  0  0  0  0  0  0  0  0  0  0
   -3.6076   -3.6993    0.8663 N   0  0  0  0  0  0  0  0  0  0  0  0
   -4.6606   -2.9758    0.1497 C   0  0  2  0  0  0  0  0  0  0  0  0
   -5.3569   -2.0013    1.1100 C   0  0  0  0  0  0  0  0  0  0  0  0
   -5.6070   -3.9609   -0.5048 C   0  0  0  0  0  0  0  0  0  0  0  0
   -5.1471   -4.7576   -1.3676 O   0  0  0  0  0  0  0  0  0  0  0  0
   -7.0175   -3.9640   -0.2250 N   0  0  0  0  0  0  0  0  0  0  0  0
   -8.0144   -4.2842   -1.2609 C   0  0  2  0  0  0  0  0  0  0  0  0
   -7.8673   -3.3672   -2.4858 C   0  0  0  0  0  0  0  0  0  0  0  0
   -9.4294   -4.2160   -0.7148 C   0  0  0  0  0  0  0  0  0  0  0  0
  -10.1127   -5.2738   -0.6918 O   0  0  0  0  0  0  0  0  0  0  0  0
  -10.0659   -2.9776   -0.3208 N   0  0  0  0  0  0  0  0  0  0  0  0
   -9.3693   -1.8687    0.3378 C   0  0  2  0  0  0  0  0  0  0  0  0
   -9.3797   -2.0822    1.8545 C   0  0  0  0  0  0  0  0  0  0  0  0
   -9.9894   -0.5335    0.0047 C   0  0  0  0  0  0  0  0  0  0  0  0
  -11.0810   -0.4670   -0.6222 O   0  0  0  0  0  0  0  0  0  0  0  0
   -9.3366    0.6662    0.4439 N   0  0  0  0  0  0  0  0  0  0  0  0
  -10.0959    1.8025    0.9906 C   0  0  2  0  0  0  0  0  0  0  0  0
  -10.9155    2.5342   -0.0815 C   0  0  0  0  0  0  0  0  0  0  0  0
   -9.1752    2.7395    1.7468 C   0  0  0  0  0  0  0  0  0  0  0  0
   -9.3274    2.8313    2.9993 O   0  0  0  0  0  0  0  0  0  0  0  0
   -8.1320    3.5295    1.1304 N   0  0  0  0  0  0  0  0  0  0  0  0
   -7.7386    3.4801   -0.2817 C   0  0  1  0  0  0  0  0  0  0  0  0
   -8.2682    4.6860   -1.0115 C   0  0  0  0  0  0  0  0  0  0  0  0
   -8.0809    6.0012   -0.4854 N   0  0  0  0  0  0  0  0  0  0  0  0
   -8.8826    4.5372   -2.1007 O   0  0  0  0  0  0  0  0  0  0  0  0
   -6.2090    3.4066   -0.4040 C   0  0  0  0  0  0  0  0  0  0  0  0
   -5.7422    2.8345   -2.0848 S   0  0  0  0  0  0  0  0  0  0  0  0
   -4.1468    3.7258   -2.1922 C   0  0  0  0  0  0  0  0  0  0  0  0
    0.3903    9.0425    0.0634 H   0  0  0  0  0  0  0  0  0  0  0  0
    0.4347   10.7963   -0.2831 H   0  0  0  0  0  0  0  0  0  0  0  0
    1.3336   10.1481    1.1411 H   0  0  0  0  0  0  0  0  0  0  0  0
    3.1996    8.7058   -2.3040 H   0  0  0  0  0  0  0  0  0  0  0  0
    3.2662    6.5958   -1.4937 H   0  0  0  0  0  0  0  0  0  0  0  0
    1.0254    6.6522   -2.4140 H   0  0  0  0  0  0  0  0  0  0  0  0
    0.3128    7.0855   -0.8588 H   0  0  0  0  0  0  0  0  0  0  0  0
    0.5041    4.4839    1.3846 H   0  0  0  0  0  0  0  0  0  0  0  0
   -0.4646    5.7874    0.6695 H   0  0  0  0  0  0  0  0  0  0  0  0
   -2.1664    5.2141   -1.1384 H   0  0  0  0  0  0  0  0  0  0  0  0
   -3.7172    1.2015   -1.1100 H   0  0  0  0  0  0  0  0  0  0  0  0
   -0.2716    2.1959    1.2585 H   0  0  0  0  0  0  0  0  0  0  0  0
   -2.8622   -0.4159    0.4335 H   0  0  0  0  0  0  0  0  0  0  0  0
   -1.8109    0.1253    1.7598 H   0  0  0  0  0  0  0  0  0  0  0  0
   -2.3396   -1.5335   -1.4303 H   0  0  0  0  0  0  0  0  0  0  0  0
   -0.7489   -1.9979   -2.0540 H   0  0  0  0  0  0  0  0  0  0  0  0
   -0.3707   -3.5759   -0.2126 H   0  0  0  0  0  0  0  0  0  0  0  0
   -2.6173   -3.9153   -2.1388 H   0  0  0  0  0  0  0  0  0  0  0  0
    0.0116   -5.7179   -0.2205 H   0  0  0  0  0  0  0  0  0  0  0  0
   -2.1776   -7.6500    0.7888 H   0  0  0  0  0  0  0  0  0  0  0  0
   -0.6605   -7.1467    1.6380 H   0  0  0  0  0  0  0  0  0  0  0  0
   -1.9737   -5.9704    1.4093 H   0  0  0  0  0  0  0  0  0  0  0  0
   -0.9127   -8.0050   -1.8880 H   0  0  0  0  0  0  0  0  0  0  0  0
    1.5895   -7.3006    0.8832 H   0  0  0  0  0  0  0  0  0  0  0  0
    1.3342  -10.3401    0.4216 H   0  0  0  0  0  0  0  0  0  0  0  0
    1.7108   -9.5203    1.9840 H   0  0  0  0  0  0  0  0  0  0  0  0
    0.1019   -9.2939    1.2124 H   0  0  0  0  0  0  0  0  0  0  0  0
    3.5520   -9.3788   -0.0136 H   0  0  0  0  0  0  0  0  0  0  0  0
    2.7822   -5.7052   -0.2593 H   0  0  0  0  0  0  0  0  0  0  0  0
    5.0622   -5.9823    1.7846 H   0  0  0  0  0  0  0  0  0  0  0  0
    4.0139   -4.5062    1.6234 H   0  0  0  0  0  0  0  0  0  0  0  0
    3.2977   -6.0945    2.0557 H   0  0  0  0  0  0  0  0  0  0  0  0
    4.1025   -4.5204   -1.6708 H   0  0  0  0  0  0  0  0  0  0  0  0
    6.3957   -4.3246    0.9479 H   0  0  0  0  0  0  0  0  0  0  0  0
    8.5572   -5.5086    1.2868 H   0  0  0  0  0  0  0  0  0  0  0  0
    8.4807   -6.1662   -0.3911 H   0  0  0  0  0  0  0  0  0  0  0  0
    7.2401   -6.6553    0.8323 H   0  0  0  0  0  0  0  0  0  0  0  0
    8.5942   -3.6905   -1.0587 H   0  0  0  0  0  0  0  0  0  0  0  0
    8.6816   -0.3908    0.8646 H   0  0  0  0  0  0  0  0  0  0  0  0
   10.5350   -2.7338    0.0729 H   0  0  0  0  0  0  0  0  0  0  0  0
   10.0311   -2.3221    1.7612 H   0  0  0  0  0  0  0  0  0  0  0  0
   11.0196   -1.1615    0.7960 H   0  0  0  0  0  0  0  0  0  0  0  0
    9.0991   -1.5118   -1.9373 H   0  0  0  0  0  0  0  0  0  0  0  0
   10.2176    1.1322    0.3698 H   0  0  0  0  0  0  0  0  0  0  0  0
   11.3548    3.1752   -0.3052 H   0  0  0  0  0  0  0  0  0  0  0  0
   11.8622    1.8277   -1.3841 H   0  0  0  0  0  0  0  0  0  0  0  0
   10.6768    3.0716   -1.9681 H   0  0  0  0  0  0  0  0  0  0  0  0
    7.8929    2.5072   -0.8851 H   0  0  0  0  0  0  0  0  0  0  0  0
    7.3154    4.6641    1.8222 H   0  0  0  0  0  0  0  0  0  0  0  0
    8.4090    6.8023    1.1225 H   0  0  0  0  0  0  0  0  0  0  0  0
    9.6491    5.8728    0.1994 H   0  0  0  0  0  0  0  0  0  0  0  0
    9.5481    5.7369    2.0059 H   0  0  0  0  0  0  0  0  0  0  0  0
    7.6118    4.7409   -1.2178 H   0  0  0  0  0  0  0  0  0  0  0  0
    5.9687    6.5179    1.4872 H   0  0  0  0  0  0  0  0  0  0  0  0
    5.2408    7.7232   -1.2350 H   0  0  0  0  0  0  0  0  0  0  0  0
    5.1625    8.6347    0.3311 H   0  0  0  0  0  0  0  0  0  0  0  0
    6.7195    7.9531   -0.2537 H   0  0  0  0  0  0  0  0  0  0  0  0
    3.8061    5.7589    1.8764 H   0  0  0  0  0  0  0  0  0  0  0  0
   -3.9093   -4.2904    1.6762 H   0  0  0  0  0  0  0  0  0  0  0  0
   -4.2192   -2.3788   -0.6746 H   0  0  0  0  0  0  0  0  0  0  0  0
   -6.1079   -1.3918    0.5675 H   0  0  0  0  0  0  0  0  0  0  0  0
   -4.6137   -1.3077    1.5550 H   0  0  0  0  0  0  0  0  0  0  0  0
   -5.8419   -2.5384    1.9550 H   0  0  0  0  0  0  0  0  0  0  0  0
   -7.3287   -3.8045    0.7541 H   0  0  0  0  0  0  0  0  0  0  0  0
   -7.8292   -5.3243   -1.6070 H   0  0  0  0  0  0  0  0  0  0  0  0
   -6.8811   -3.5247   -2.9728 H   0  0  0  0  0  0  0  0  0  0  0  0
   -8.6569   -3.5940   -3.2319 H   0  0  0  0  0  0  0  0  0  0  0  0
   -7.9461   -2.2930   -2.2078 H   0  0  0  0  0  0  0  0  0  0  0  0
  -11.1097   -3.0099   -0.2280 H   0  0  0  0  0  0  0  0  0  0  0  0
   -8.3245   -1.8220   -0.0104 H   0  0  0  0  0  0  0  0  0  0  0  0
   -9.0730   -3.1170    2.1071 H   0  0  0  0  0  0  0  0  0  0  0  0
  -10.3984   -1.9198    2.2635 H   0  0  0  0  0  0  0  0  0  0  0  0
   -8.6738   -1.3854    2.3456 H   0  0  0  0  0  0  0  0  0  0  0  0
   -8.3414    0.5680    0.7354 H   0  0  0  0  0  0  0  0  0  0  0  0
  -10.8294    1.3987    1.7279 H   0  0  0  0  0  0  0  0  0  0  0  0
  -11.8490    1.9688   -0.2981 H   0  0  0  0  0  0  0  0  0  0  0  0
  -10.3644    2.6450   -1.0395 H   0  0  0  0  0  0  0  0  0  0  0  0
  -11.2217    3.5457    0.2859 H   0  0  0  0  0  0  0  0  0  0  0  0
   -7.5975    4.1712    1.7606 H   0  0  0  0  0  0  0  0  0  0  0  0
   -8.1313    2.5590   -0.7507 H   0  0  0  0  0  0  0  0  0  0  0  0
   -7.6429    6.1439    0.4505 H   0  0  0  0  0  0  0  0  0  0  0  0
   -8.5301    6.8266   -0.9456 H   0  0  0  0  0  0  0  0  0  0  0  0
   -5.7543    4.3938   -0.1645 H   0  0  0  0  0  0  0  0  0  0  0  0
   -5.8111    2.6656    0.3271 H   0  0  0  0  0  0  0  0  0  0  0  0
   -4.3448    4.8158   -2.1063 H   0  0  0  0  0  0  0  0  0  0  0  0
   -3.7285    3.5396   -3.2025 H   0  0  0  0  0  0  0  0  0  0  0  0
  1  2  1  0
  2  3  2  0
  2  4  1  0
  4  5  1  0
  5  6  1  0
  6  7  1  0
  7  8  1  0
  8  9  1  0
  9 10  2  0
 10 11  1  0
 11 12  2  0
 12 13  1  0
 13 14  2  0
 13 15  1  0
 15 16  1  0
 16 17  1  0
 17 18  1  0
 18 19  1  0
 19 20  1  0
 20 21  2  0
 20 22  1  0
 22 23  1  0
 22 24  1  0
 24 25  1  0
 25 26  2  0
 25 27  1  0
 27 28  1  0
 27 29  1  0
 29 30  1  0
 30 31  2  0
 30 32  1  0
 32 33  1  0
 32 34  1  0
 34 35  1  0
 35 36  2  0
 35 37  1  0
 37 38  1  0
 37 39  1  0
 39 40  1  0
 40 41  2  0
 40 42  1  0
 42 43  1  0
 42 44  1  0
 44 45  1  0
 45 46  2  0
 45 47  1  0
 47 48  1  0
 47 49  1  0
 49 50  1  0
 50 51  2  0
 50 52  1  0
 52 53  1  0
 52 54  1  0
 54 55  1  0
 55 56  2  0
 55 57  1  0
 57 58  1  0
 57 59  1  0
 59 60  1  0
 60 61  2  0
 18 62  1  0
 62 63  2  0
 62 64  1  0
 64 65  1  0
 65 66  1  0
 65 67  1  0
 67 68  2  0
 67 69  1  0
 69 70  1  0
 70 71  1  0
 70 72  1  0
 72 73  2  0
 72 74  1  0
 74 75  1  0
 75 76  1  0
 75 77  1  0
 77 78  2  0
 77 79  1  0
 79 80  1  0
 80 81  1  0
 80 82  1  0
 82 83  2  0
 82 84  1  0
 84 85  1  0
 85 86  1  0
 86 87  1  0
 86 88  2  0
 85 89  1  0
 89 90  1  0
 90 91  1  0
 60  5  1  0
 14  9  1  0
 91 11  1  0
  1 92  1  0
  1 93  1  0
  1 94  1  0
  4 95  1  0
  5 96  1  6
  6 97  1  0
  6 98  1  0
  8 99  1  0
  8100  1  0
 10101  1  0
 12102  1  0
 14103  1  0
 15104  1  0
 15105  1  0
 17106  1  0
 17107  1  0
 18108  1  1
 19109  1  0
 22110  1  1
 23111  1  0
 23112  1  0
 23113  1  0
 24114  1  0
 27115  1  1
 28116  1  0
 28117  1  0
 28118  1  0
 29119  1  0
 32120  1  6
 33121  1  0
 33122  1  0
 33123  1  0
 34124  1  0
 37125  1  1
 38126  1  0
 38127  1  0
 38128  1  0
 39129  1  0
 42130  1  1
 43131  1  0
 43132  1  0
 43133  1  0
 44134  1  0
 47135  1  1
 48136  1  0
 48137  1  0
 48138  1  0
 49139  1  0
 52140  1  1
 53141  1  0
 53142  1  0
 53143  1  0
 54144  1  0
 57145  1  1
 58146  1  0
 58147  1  0
 58148  1  0
 59149  1  0
 64150  1  0
 65151  1  6
 66152  1  0
 66153  1  0
 66154  1  0
 69155  1  0
 70156  1  6
 71157  1  0
 71158  1  0
 71159  1  0
 74160  1  0
 75161  1  6
 76162  1  0
 76163  1  0
 76164  1  0
 79165  1  0
 80166  1  1
 81167  1  0
 81168  1  0
 81169  1  0
 84170  1  0
 85171  1  6
 87172  1  0
 87173  1  0
 89174  1  0
 89175  1  0
 91176  1  0
 91177  1  0
M  END
