
     RDKit          3D

137139  0  0  0  0  0  0  0  0999 V2000
   11.5815   -2.4554    0.9676 C   0  0  0  0  0  0  0  0  0  0  0  0
   10.4400   -1.5112    1.0153 C   0  0  0  0  0  0  0  0  0  0  0  0
   10.2116   -0.8558    2.0689 O   0  0  0  0  0  0  0  0  0  0  0  0
    9.6630   -1.2659   -0.1649 N   0  0  0  0  0  0  0  0  0  0  0  0
    8.2667   -0.8727   -0.0788 C   0  0  2  0  0  0  0  0  0  0  0  0
    7.3964   -1.9941   -0.6827 C   0  0  0  0  0  0  0  0  0  0  0  0
    7.0491   -3.3086    0.5499 S   0  0  0  0  0  0  0  0  0  0  0  0
    6.0369   -4.5034   -0.4590 C   0  0  0  0  0  0  0  0  0  0  0  0
    4.6093   -4.0675   -0.5720 C   0  0  0  0  0  0  0  0  0  0  0  0
    3.5189   -4.8550   -0.1135 C   0  0  0  0  0  0  0  0  0  0  0  0
    2.1849   -4.3851   -0.2882 C   0  0  0  0  0  0  0  0  0  0  0  0
    2.0189   -3.0532   -0.7029 C   0  0  0  0  0  0  0  0  0  0  0  0
    3.1348   -2.2288   -0.7005 C   0  0  0  0  0  0  0  0  0  0  0  0
    4.2919   -2.8531   -1.1368 C   0  0  0  0  0  0  0  0  0  0  0  0
    3.3086   -1.4973    0.6191 C   0  0  0  0  0  0  0  0  0  0  0  0
    4.7570   -0.3807    0.6724 S   0  0  0  0  0  0  0  0  0  0  0  0
    4.5033    0.5694   -0.8617 C   0  0  0  0  0  0  0  0  0  0  0  0
    4.0813    2.0069   -0.5427 C   0  0  2  0  0  0  0  0  0  0  0  0
    4.7132    2.4301    0.7236 N   0  0  0  0  0  0  0  0  0  0  0  0
    6.1433    2.5793    0.8914 C   0  0  0  0  0  0  0  0  0  0  0  0
    6.5995    2.6465    2.0766 O   0  0  0  0  0  0  0  0  0  0  0  0
    7.1131    2.6890   -0.2634 C   0  0  1  0  0  0  0  0  0  0  0  0
    7.6861    4.1184   -0.2243 C   0  0  0  0  0  0  0  0  0  0  0  0
    8.1843    1.6905   -0.1276 N   0  0  0  0  0  0  0  0  0  0  0  0
    8.0833    0.4252   -0.8147 C   0  0  0  0  0  0  0  0  0  0  0  0
    7.9418    0.4271   -2.0675 O   0  0  0  0  0  0  0  0  0  0  0  0
    2.5635    2.1062   -0.4613 C   0  0  0  0  0  0  0  0  0  0  0  0
    1.9119    1.0815   -0.2282 O   0  0  0  0  0  0  0  0  0  0  0  0
    1.8708    3.2305   -1.0144 N   0  0  0  0  0  0  0  0  0  0  0  0
    1.8481    4.5951   -0.4848 C   0  0  2  0  0  0  0  0  0  0  0  0
    3.1948    5.0970    0.0016 C   0  0  0  0  0  0  0  0  0  0  0  0
    0.8421    4.6586    0.6251 C   0  0  0  0  0  0  0  0  0  0  0  0
    0.8411    3.7166    1.4776 O   0  0  0  0  0  0  0  0  0  0  0  0
   -0.0313    5.7951    0.8304 N   0  0  0  0  0  0  0  0  0  0  0  0
   -0.3644    6.7685   -0.1944 C   0  0  2  0  0  0  0  0  0  0  0  0
   -0.5376    8.1442    0.4503 C   0  0  0  0  0  0  0  0  0  0  0  0
   -1.5909    6.3366   -0.9702 C   0  0  0  0  0  0  0  0  0  0  0  0
   -1.8162    6.8499   -2.1073 O   0  0  0  0  0  0  0  0  0  0  0  0
   -2.5585    5.4058   -0.3697 N   0  0  0  0  0  0  0  0  0  0  0  0
   -4.0179    5.3591   -0.4618 C   0  0  2  0  0  0  0  0  0  0  0  0
   -4.6565    6.4861   -1.2438 C   0  0  0  0  0  0  0  0  0  0  0  0
   -4.5789    5.3435    0.9653 C   0  0  0  0  0  0  0  0  0  0  0  0
   -3.9392    5.9473    1.8586 O   0  0  0  0  0  0  0  0  0  0  0  0
   -5.8497    4.7477    1.3317 N   0  0  0  0  0  0  0  0  0  0  0  0
   -6.6986    3.8880    0.4874 C   0  0  2  0  0  0  0  0  0  0  0  0
   -7.9237    4.6900    0.0488 C   0  0  0  0  0  0  0  0  0  0  0  0
   -7.1570    2.7025    1.2943 C   0  0  0  0  0  0  0  0  0  0  0  0
   -7.6890    2.9042    2.4271 O   0  0  0  0  0  0  0  0  0  0  0  0
   -6.9905    1.3310    0.8563 N   0  0  0  0  0  0  0  0  0  0  0  0
   -6.9917    0.8733   -0.5375 C   0  0  2  0  0  0  0  0  0  0  0  0
   -8.3989    0.5559   -0.9985 C   0  0  0  0  0  0  0  0  0  0  0  0
   -6.0509   -0.2982   -0.6755 C   0  0  0  0  0  0  0  0  0  0  0  0
   -4.9600   -0.1528   -1.2947 O   0  0  0  0  0  0  0  0  0  0  0  0
   -6.2220   -1.4840    0.1215 N   0  0  0  0  0  0  0  0  0  0  0  0
   -7.1475   -2.5719   -0.2227 C   0  0  2  0  0  0  0  0  0  0  0  0
   -7.8423   -3.0743    1.0426 C   0  0  0  0  0  0  0  0  0  0  0  0
   -6.3911   -3.6720   -0.9474 C   0  0  0  0  0  0  0  0  0  0  0  0
   -6.6480   -3.9567   -2.1568 O   0  0  0  0  0  0  0  0  0  0  0  0
   -5.2367   -4.2401   -0.3068 N   0  0  0  0  0  0  0  0  0  0  0  0
   -5.0448   -5.6706   -0.0107 C   0  0  2  0  0  0  0  0  0  0  0  0
   -6.3720   -6.4516    0.1535 C   0  0  0  0  0  0  0  0  0  0  0  0
   -4.2749   -5.7624    1.2709 C   0  0  0  0  0  0  0  0  0  0  0  0
   -4.7620   -5.1799    2.2829 O   0  0  0  0  0  0  0  0  0  0  0  0
   -2.9975   -6.4270    1.3933 N   0  0  0  0  0  0  0  0  0  0  0  0
   -1.9394   -6.4944    0.3760 C   0  0  1  0  0  0  0  0  0  0  0  0
   -2.1337   -7.6972   -0.5473 C   0  0  0  0  0  0  0  0  0  0  0  0
   -2.3542   -8.9869    0.0072 N   0  0  0  0  0  0  0  0  0  0  0  0
   -1.9142   -7.6018   -1.7871 O   0  0  0  0  0  0  0  0  0  0  0  0
   -1.7944   -5.1869   -0.3830 C   0  0  0  0  0  0  0  0  0  0  0  0
   -0.2461   -5.0406   -1.3582 S   0  0  0  0  0  0  0  0  0  0  0  0
    0.9908   -5.2513   -0.0231 C   0  0  0  0  0  0  0  0  0  0  0  0
   12.1132   -2.4658    1.9467 H   0  0  0  0  0  0  0  0  0  0  0  0
   12.3128   -2.1371    0.1665 H   0  0  0  0  0  0  0  0  0  0  0  0
   11.2073   -3.4751    0.7336 H   0  0  0  0  0  0  0  0  0  0  0  0
   10.0472   -1.5470   -1.0923 H   0  0  0  0  0  0  0  0  0  0  0  0
    7.9494   -0.7020    0.9663 H   0  0  0  0  0  0  0  0  0  0  0  0
    7.8431   -2.4196   -1.5893 H   0  0  0  0  0  0  0  0  0  0  0  0
    6.4346   -1.5187   -0.9846 H   0  0  0  0  0  0  0  0  0  0  0  0
    6.0922   -5.4965    0.0331 H   0  0  0  0  0  0  0  0  0  0  0  0
    6.4887   -4.6696   -1.4830 H   0  0  0  0  0  0  0  0  0  0  0  0
    3.6929   -5.8512    0.2698 H   0  0  0  0  0  0  0  0  0  0  0  0
    1.0611   -2.6578   -1.0819 H   0  0  0  0  0  0  0  0  0  0  0  0
    4.8396   -2.5012   -1.9868 H   0  0  0  0  0  0  0  0  0  0  0  0
    2.3854   -0.9519    0.9045 H   0  0  0  0  0  0  0  0  0  0  0  0
    3.4537   -2.2613    1.4070 H   0  0  0  0  0  0  0  0  0  0  0  0
    5.4441    0.5740   -1.4275 H   0  0  0  0  0  0  0  0  0  0  0  0
    3.7715    0.0902   -1.5702 H   0  0  0  0  0  0  0  0  0  0  0  0
    4.4183    2.6588   -1.3696 H   0  0  0  0  0  0  0  0  0  0  0  0
    4.1804    2.2278    1.6309 H   0  0  0  0  0  0  0  0  0  0  0  0
    6.5894    2.5827   -1.2283 H   0  0  0  0  0  0  0  0  0  0  0  0
    6.8625    4.8459   -0.2986 H   0  0  0  0  0  0  0  0  0  0  0  0
    8.2478    4.2718    0.7356 H   0  0  0  0  0  0  0  0  0  0  0  0
    8.3861    4.2772   -1.0889 H   0  0  0  0  0  0  0  0  0  0  0  0
    9.1745    2.0589   -0.1297 H   0  0  0  0  0  0  0  0  0  0  0  0
    0.9921    2.9553   -1.5091 H   0  0  0  0  0  0  0  0  0  0  0  0
    1.5741    5.2036   -1.3380 H   0  0  0  0  0  0  0  0  0  0  0  0
    3.1379    6.1866    0.1466 H   0  0  0  0  0  0  0  0  0  0  0  0
    3.4466    4.6506    0.9756 H   0  0  0  0  0  0  0  0  0  0  0  0
    4.0091    4.9008   -0.7257 H   0  0  0  0  0  0  0  0  0  0  0  0
   -0.7813    5.6111    1.5232 H   0  0  0  0  0  0  0  0  0  0  0  0
    0.4690    6.9060   -0.9088 H   0  0  0  0  0  0  0  0  0  0  0  0
    0.3582    8.3954    1.0853 H   0  0  0  0  0  0  0  0  0  0  0  0
   -0.6288    8.9685   -0.3173 H   0  0  0  0  0  0  0  0  0  0  0  0
   -1.4341    8.1702    1.1226 H   0  0  0  0  0  0  0  0  0  0  0  0
   -2.1299    4.5707    0.0801 H   0  0  0  0  0  0  0  0  0  0  0  0
   -4.2685    4.4274   -0.9869 H   0  0  0  0  0  0  0  0  0  0  0  0
   -5.7380    6.2866   -1.4797 H   0  0  0  0  0  0  0  0  0  0  0  0
   -4.1827    6.5743   -2.2447 H   0  0  0  0  0  0  0  0  0  0  0  0
   -4.5764    7.4686   -0.7062 H   0  0  0  0  0  0  0  0  0  0  0  0
   -6.2867    5.1493    2.1732 H   0  0  0  0  0  0  0  0  0  0  0  0
   -6.1687    3.5829   -0.3957 H   0  0  0  0  0  0  0  0  0  0  0  0
   -8.4531    4.1526   -0.7888 H   0  0  0  0  0  0  0  0  0  0  0  0
   -8.6222    4.8450    0.8875 H   0  0  0  0  0  0  0  0  0  0  0  0
   -7.6136    5.6936   -0.3279 H   0  0  0  0  0  0  0  0  0  0  0  0
   -7.1884    0.6071    1.5808 H   0  0  0  0  0  0  0  0  0  0  0  0
   -6.6093    1.6732   -1.1955 H   0  0  0  0  0  0  0  0  0  0  0  0
   -9.0049    1.5194   -1.0588 H   0  0  0  0  0  0  0  0  0  0  0  0
   -8.9159   -0.1283   -0.2964 H   0  0  0  0  0  0  0  0  0  0  0  0
   -8.3861    0.1165   -2.0207 H   0  0  0  0  0  0  0  0  0  0  0  0
   -5.4454   -1.7202    0.7830 H   0  0  0  0  0  0  0  0  0  0  0  0
   -7.9292   -2.2038   -0.9322 H   0  0  0  0  0  0  0  0  0  0  0  0
   -7.0746   -3.4461    1.7711 H   0  0  0  0  0  0  0  0  0  0  0  0
   -8.3913   -2.2152    1.5180 H   0  0  0  0  0  0  0  0  0  0  0  0
   -8.5457   -3.8823    0.8190 H   0  0  0  0  0  0  0  0  0  0  0  0
   -4.3716   -3.6551   -0.2918 H   0  0  0  0  0  0  0  0  0  0  0  0
   -4.4825   -6.1725   -0.8276 H   0  0  0  0  0  0  0  0  0  0  0  0
   -6.2217   -7.2949    0.8886 H   0  0  0  0  0  0  0  0  0  0  0  0
   -7.1692   -5.7682    0.5286 H   0  0  0  0  0  0  0  0  0  0  0  0
   -6.6651   -6.8952   -0.8329 H   0  0  0  0  0  0  0  0  0  0  0  0
   -2.7289   -6.7384    2.3494 H   0  0  0  0  0  0  0  0  0  0  0  0
   -1.0030   -6.7277    0.9190 H   0  0  0  0  0  0  0  0  0  0  0  0
   -2.7254   -9.1035    0.9754 H   0  0  0  0  0  0  0  0  0  0  0  0
   -2.0597   -9.8572   -0.5215 H   0  0  0  0  0  0  0  0  0  0  0  0
   -1.8797   -4.3198    0.3067 H   0  0  0  0  0  0  0  0  0  0  0  0
   -2.6076   -5.0380   -1.1288 H   0  0  0  0  0  0  0  0  0  0  0  0
    0.5721   -4.9594    0.9578 H   0  0  0  0  0  0  0  0  0  0  0  0
    1.2747   -6.3302   -0.0234 H   0  0  0  0  0  0  0  0  0  0  0  0
  1  2  1  0
  2  3  2  0
  2  4  1  0
  4  5  1  0
  5  6  1  0
  6  7  1  0
  7  8  1  0
  8  9  1  0
  9 10  1  0
 10 11  2  0
 11 12  1  0
 12 13  2  0
 13 14  1  0
 13 15  1  0
 15 16  1  0
 16 17  1  0
 17 18  1  0
 18 19  1  0
 19 20  1  0
 20 21  2  0
 20 22  1  0
 22 23  1  0
 22 24  1  0
 24 25  1  0
 25 26  2  0
 18 27  1  0
 27 28  2  0
 27 29  1  0
 29 30  1  0
 30 31  1  0
 30 32  1  0
 32 33  2  0
 32 34  1  0
 34 35  1  0
 35 36  1  0
 35 37  1  0
 37 38  2  0
 37 39  1  0
 39 40  1  0
 40 41  1  0
 40 42  1  0
 42 43  2  0
 42 44  1  0
 44 45  1  0
 45 46  1  0
 45 47  1  0
 47 48  2  0
 47 49  1  0
 49 50  1  0
 50 51  1  0
 50 52  1  0
 52 53  2  0
 52 54  1  0
 54 55  1  0
 55 56  1  0
 55 57  1  0
 57 58  2  0
 57 59  1  0
 59 60  1  0
 60 61  1  0
 60 62  1  0
 62 63  2  0
 62 64  1  0
 64 65  1  0
 65 66  1  0
 66 67  1  0
 66 68  2  0
 65 69  1  0
 69 70  1  0
 70 71  1  0
 25  5  1  0
 14  9  2  0
 71 11  1  0
  1 72  1  0
  1 73  1  0
  1 74  1  0
  4 75  1  0
  5 76  1  1
  6 77  1  0
  6 78  1  0
  8 79  1  0
  8 80  1  0
 10 81  1  0
 12 82  1  0
 14 83  1  0
 15 84  1  0
 15 85  1  0
 17 86  1  0
 17 87  1  0
 18 88  1  6
 19 89  1  0
 22 90  1  6
 23 91  1  0
 23 92  1  0
 23 93  1  0
 24 94  1  0
 29 95  1  0
 30 96  1  6
 31 97  1  0
 31 98  1  0
 31 99  1  0
 34100  1  0
 35101  1  6
 36102  1  0
 36103  1  0
 36104  1  0
 39105  1  0
 40106  1  6
 41107  1  0
 41108  1  0
 41109  1  0
 44110  1  0
 45111  1  6
 46112  1  0
 46113  1  0
 46114  1  0
 49115  1  0
 50116  1  6
 51117  1  0
 51118  1  0
 51119  1  0
 54120  1  0
 55121  1  6
 56122  1  0
 56123  1  0
 56124  1  0
 59125  1  0
 60126  1  6
 61127  1  0
 61128  1  0
 61129  1  0
 64130  1  0
 65131  1  1
 67132  1  0
 67133  1  0
 69134  1  0
 69135  1  0
 71136  1  0
 71137  1  0
M  END
