
     RDKit          3D

167169  0  0  0  0  0  0  0  0999 V2000
    0.6973    9.7339    1.0566 C   0  0  0  0  0  0  0  0  0  0  0  0
    1.1002    8.6194    1.9789 C   0  0  0  0  0  0  0  0  0  0  0  0
    1.2428    8.8663    3.2051 O   0  0  0  0  0  0  0  0  0  0  0  0
    1.3272    7.2815    1.5038 N   0  0  0  0  0  0  0  0  0  0  0  0
    1.4522    6.9182    0.0898 C   0  0  2  0  0  0  0  0  0  0  0  0
    0.6745    5.6161   -0.1691 C   0  0  0  0  0  0  0  0  0  0  0  0
    0.5308    5.2957   -1.9679 S   0  0  0  0  0  0  0  0  0  0  0  0
    0.4140    3.4774   -1.8340 C   0  0  0  0  0  0  0  0  0  0  0  0
   -0.9156    3.0520   -1.2706 C   0  0  0  0  0  0  0  0  0  0  0  0
   -2.0982    3.4075   -1.9399 C   0  0  0  0  0  0  0  0  0  0  0  0
   -3.3406    2.9405   -1.4873 C   0  0  0  0  0  0  0  0  0  0  0  0
   -3.3907    2.0785   -0.3858 C   0  0  0  0  0  0  0  0  0  0  0  0
   -2.2247    1.7096    0.2922 C   0  0  0  0  0  0  0  0  0  0  0  0
   -0.9884    2.2377   -0.1254 C   0  0  0  0  0  0  0  0  0  0  0  0
   -2.3045    0.7227    1.4309 C   0  0  0  0  0  0  0  0  0  0  0  0
   -1.2407   -0.7266    1.0700 S   0  0  0  0  0  0  0  0  0  0  0  0
   -2.4141   -2.0858    1.4884 C   0  0  0  0  0  0  0  0  0  0  0  0
   -2.9969   -2.8024    0.2483 C   0  0  2  0  0  0  0  0  0  0  0  0
   -1.9757   -2.9563   -0.7993 N   0  0  0  0  0  0  0  0  0  0  0  0
   -1.4157   -4.2064   -1.2399 C   0  0  0  0  0  0  0  0  0  0  0  0
   -0.7745   -4.2301   -2.3258 O   0  0  0  0  0  0  0  0  0  0  0  0
   -1.5760   -5.4903   -0.4546 C   0  0  1  0  0  0  0  0  0  0  0  0
   -2.7676   -6.2835   -0.9871 C   0  0  0  0  0  0  0  0  0  0  0  0
   -0.3586   -6.2966   -0.5586 N   0  0  0  0  0  0  0  0  0  0  0  0
    0.1592   -6.9784    0.5846 C   0  0  0  0  0  0  0  0  0  0  0  0
   -0.4289   -8.0114    1.0089 O   0  0  0  0  0  0  0  0  0  0  0  0
    1.3603   -6.4314    1.3005 C   0  0  1  0  0  0  0  0  0  0  0  0
    0.9182   -5.5379    2.4623 C   0  0  0  0  0  0  0  0  0  0  0  0
    2.1914   -7.5254    1.8090 N   0  0  0  0  0  0  0  0  0  0  0  0
    3.5638   -7.7517    1.4462 C   0  0  0  0  0  0  0  0  0  0  0  0
    4.3720   -8.1130    2.3442 O   0  0  0  0  0  0  0  0  0  0  0  0
    4.0926   -7.6048    0.0341 C   0  0  1  0  0  0  0  0  0  0  0  0
    3.1098   -8.0933   -1.0398 C   0  0  0  0  0  0  0  0  0  0  0  0
    4.5010   -6.2144   -0.2272 N   0  0  0  0  0  0  0  0  0  0  0  0
    5.8840   -5.8234   -0.2881 C   0  0  0  0  0  0  0  0  0  0  0  0
    6.7653   -6.5454    0.2536 O   0  0  0  0  0  0  0  0  0  0  0  0
    6.2996   -4.5316   -0.9490 C   0  0  1  0  0  0  0  0  0  0  0  0
    5.6398   -4.3434   -2.3185 C   0  0  0  0  0  0  0  0  0  0  0  0
    5.9632   -3.4038   -0.0736 N   0  0  0  0  0  0  0  0  0  0  0  0
    6.9389   -2.6564    0.6743 C   0  0  0  0  0  0  0  0  0  0  0  0
    6.6366   -2.2650    1.8347 O   0  0  0  0  0  0  0  0  0  0  0  0
    8.3067   -2.3272    0.1072 C   0  0  1  0  0  0  0  0  0  0  0  0
    8.2480   -1.7637   -1.3229 C   0  0  0  0  0  0  0  0  0  0  0  0
    9.0605   -1.4222    0.9890 N   0  0  0  0  0  0  0  0  0  0  0  0
    8.8705   -0.0014    1.1390 C   0  0  0  0  0  0  0  0  0  0  0  0
    9.8315    0.6810    1.5836 O   0  0  0  0  0  0  0  0  0  0  0  0
    7.5556    0.6908    0.8479 C   0  0  1  0  0  0  0  0  0  0  0  0
    7.0360    1.4079    2.1043 C   0  0  0  0  0  0  0  0  0  0  0  0
    7.6732    1.6196   -0.2826 N   0  0  0  0  0  0  0  0  0  0  0  0
    8.3012    2.9056   -0.1867 C   0  0  0  0  0  0  0  0  0  0  0  0
    9.5229    2.9774    0.1036 O   0  0  0  0  0  0  0  0  0  0  0  0
    7.4808    4.1746   -0.2786 C   0  0  1  0  0  0  0  0  0  0  0  0
    8.2358    5.2761   -1.0298 C   0  0  0  0  0  0  0  0  0  0  0  0
    6.1927    3.9333   -0.9368 N   0  0  0  0  0  0  0  0  0  0  0  0
    4.9881    3.6566   -0.2062 C   0  0  0  0  0  0  0  0  0  0  0  0
    4.5180    2.4860   -0.2347 O   0  0  0  0  0  0  0  0  0  0  0  0
    4.1779    4.7524    0.4485 C   0  0  1  0  0  0  0  0  0  0  0  0
    4.9998    5.5790    1.4453 C   0  0  0  0  0  0  0  0  0  0  0  0
    3.5678    5.6001   -0.5810 N   0  0  0  0  0  0  0  0  0  0  0  0
    2.9230    6.8383   -0.2559 C   0  0  0  0  0  0  0  0  0  0  0  0
    3.6159    7.8862   -0.2001 O   0  0  0  0  0  0  0  0  0  0  0  0
   -4.1975   -2.0750   -0.3123 C   0  0  0  0  0  0  0  0  0  0  0  0
   -4.0213   -1.0283   -0.9953 O   0  0  0  0  0  0  0  0  0  0  0  0
   -5.5339   -2.5817   -0.1473 N   0  0  0  0  0  0  0  0  0  0  0  0
   -6.0466   -3.1627    1.1032 C   0  0  2  0  0  0  0  0  0  0  0  0
   -7.0131   -4.3119    0.8204 C   0  0  0  0  0  0  0  0  0  0  0  0
   -6.6569   -2.1083    2.0034 C   0  0  0  0  0  0  0  0  0  0  0  0
   -6.0255   -1.7954    3.0480 O   0  0  0  0  0  0  0  0  0  0  0  0
   -7.9517   -1.5019    1.7857 N   0  0  0  0  0  0  0  0  0  0  0  0
   -8.4118   -0.7578    0.5961 C   0  0  2  0  0  0  0  0  0  0  0  0
   -9.1567   -1.6965   -0.3600 C   0  0  0  0  0  0  0  0  0  0  0  0
   -7.2980    0.0195   -0.0760 C   0  0  0  0  0  0  0  0  0  0  0  0
   -6.2027    0.1664    0.5209 O   0  0  0  0  0  0  0  0  0  0  0  0
   -7.4386    0.5934   -1.3888 N   0  0  0  0  0  0  0  0  0  0  0  0
   -8.6043    1.3662   -1.8328 C   0  0  2  0  0  0  0  0  0  0  0  0
   -9.1447    0.7323   -3.1267 C   0  0  0  0  0  0  0  0  0  0  0  0
   -8.2351    2.8276   -2.0580 C   0  0  0  0  0  0  0  0  0  0  0  0
   -8.2463    3.3098   -3.2247 O   0  0  0  0  0  0  0  0  0  0  0  0
   -7.9598    3.7177   -0.9672 N   0  0  0  0  0  0  0  0  0  0  0  0
   -6.9310    3.4636    0.0455 C   0  0  2  0  0  0  0  0  0  0  0  0
   -7.5478    3.3807    1.4178 C   0  0  0  0  0  0  0  0  0  0  0  0
   -6.8062    2.8333    2.5115 N   0  0  0  0  0  0  0  0  0  0  0  0
   -8.7191    3.8048    1.6157 O   0  0  0  0  0  0  0  0  0  0  0  0
   -5.8208    4.5372    0.0067 C   0  0  0  0  0  0  0  0  0  0  0  0
   -5.2334    4.9554   -1.6880 S   0  0  0  0  0  0  0  0  0  0  0  0
   -4.6012    3.3197   -2.2139 C   0  0  0  0  0  0  0  0  0  0  0  0
    1.4921    9.9008    0.2997 H   0  0  0  0  0  0  0  0  0  0  0  0
   -0.2558    9.4758    0.5522 H   0  0  0  0  0  0  0  0  0  0  0  0
    0.5556   10.6737    1.6281 H   0  0  0  0  0  0  0  0  0  0  0  0
    1.5969    6.5618    2.2147 H   0  0  0  0  0  0  0  0  0  0  0  0
    0.9936    7.6993   -0.5527 H   0  0  0  0  0  0  0  0  0  0  0  0
    1.1565    4.7719    0.3680 H   0  0  0  0  0  0  0  0  0  0  0  0
   -0.3586    5.7164    0.2300 H   0  0  0  0  0  0  0  0  0  0  0  0
    1.2660    3.0873   -1.2374 H   0  0  0  0  0  0  0  0  0  0  0  0
    0.5101    3.0583   -2.8596 H   0  0  0  0  0  0  0  0  0  0  0  0
   -2.0526    4.0284   -2.8313 H   0  0  0  0  0  0  0  0  0  0  0  0
   -4.3391    1.6855   -0.0603 H   0  0  0  0  0  0  0  0  0  0  0  0
   -0.0803    1.9659    0.4021 H   0  0  0  0  0  0  0  0  0  0  0  0
   -3.3608    0.4180    1.6046 H   0  0  0  0  0  0  0  0  0  0  0  0
   -1.9379    1.2089    2.3604 H   0  0  0  0  0  0  0  0  0  0  0  0
   -1.8323   -2.8372    2.0660 H   0  0  0  0  0  0  0  0  0  0  0  0
   -3.2254   -1.7438    2.1676 H   0  0  0  0  0  0  0  0  0  0  0  0
   -3.3461   -3.7966    0.5728 H   0  0  0  0  0  0  0  0  0  0  0  0
   -1.6847   -2.1046   -1.3290 H   0  0  0  0  0  0  0  0  0  0  0  0
   -1.7517   -5.2598    0.6185 H   0  0  0  0  0  0  0  0  0  0  0  0
   -2.9151   -7.1937   -0.3666 H   0  0  0  0  0  0  0  0  0  0  0  0
   -2.5971   -6.5930   -2.0414 H   0  0  0  0  0  0  0  0  0  0  0  0
   -3.6965   -5.6708   -0.9352 H   0  0  0  0  0  0  0  0  0  0  0  0
    0.0507   -6.5128   -1.4929 H   0  0  0  0  0  0  0  0  0  0  0  0
    1.9392   -5.7969    0.6023 H   0  0  0  0  0  0  0  0  0  0  0  0
    0.2412   -6.0863    3.1515 H   0  0  0  0  0  0  0  0  0  0  0  0
    1.8094   -5.1975    3.0373 H   0  0  0  0  0  0  0  0  0  0  0  0
    0.3905   -4.6387    2.0745 H   0  0  0  0  0  0  0  0  0  0  0  0
    1.8181   -8.0898    2.6072 H   0  0  0  0  0  0  0  0  0  0  0  0
    4.9816   -8.2715   -0.0506 H   0  0  0  0  0  0  0  0  0  0  0  0
    2.7090   -9.0955   -0.7754 H   0  0  0  0  0  0  0  0  0  0  0  0
    3.6384   -8.1754   -2.0128 H   0  0  0  0  0  0  0  0  0  0  0  0
    2.2658   -7.3906   -1.1706 H   0  0  0  0  0  0  0  0  0  0  0  0
    3.7854   -5.5491   -0.5818 H   0  0  0  0  0  0  0  0  0  0  0  0
    7.3913   -4.5812   -1.1209 H   0  0  0  0  0  0  0  0  0  0  0  0
    5.8517   -5.2132   -2.9749 H   0  0  0  0  0  0  0  0  0  0  0  0
    6.0411   -3.4328   -2.8103 H   0  0  0  0  0  0  0  0  0  0  0  0
    4.5387   -4.2131   -2.2339 H   0  0  0  0  0  0  0  0  0  0  0  0
    4.9538   -3.2667    0.1764 H   0  0  0  0  0  0  0  0  0  0  0  0
    8.8685   -3.2839    0.0611 H   0  0  0  0  0  0  0  0  0  0  0  0
    7.3940   -1.0670   -1.4535 H   0  0  0  0  0  0  0  0  0  0  0  0
    8.1447   -2.5861   -2.0610 H   0  0  0  0  0  0  0  0  0  0  0  0
    9.1897   -1.2236   -1.5665 H   0  0  0  0  0  0  0  0  0  0  0  0
    9.9097   -1.8304    1.4479 H   0  0  0  0  0  0  0  0  0  0  0  0
    6.7871   -0.0571    0.5853 H   0  0  0  0  0  0  0  0  0  0  0  0
    6.8959    0.6748    2.9264 H   0  0  0  0  0  0  0  0  0  0  0  0
    6.0573    1.8867    1.8958 H   0  0  0  0  0  0  0  0  0  0  0  0
    7.7499    2.1924    2.4445 H   0  0  0  0  0  0  0  0  0  0  0  0
    7.0936    1.4233   -1.1339 H   0  0  0  0  0  0  0  0  0  0  0  0
    7.3228    4.5137    0.7647 H   0  0  0  0  0  0  0  0  0  0  0  0
    9.1548    5.5649   -0.4767 H   0  0  0  0  0  0  0  0  0  0  0  0
    7.5940    6.1739   -1.1277 H   0  0  0  0  0  0  0  0  0  0  0  0
    8.5160    4.9281   -2.0472 H   0  0  0  0  0  0  0  0  0  0  0  0
    6.2136    3.6435   -1.9421 H   0  0  0  0  0  0  0  0  0  0  0  0
    3.3628    4.2725    1.0332 H   0  0  0  0  0  0  0  0  0  0  0  0
    5.7402    6.2168    0.9136 H   0  0  0  0  0  0  0  0  0  0  0  0
    4.3323    6.2411    2.0359 H   0  0  0  0  0  0  0  0  0  0  0  0
    5.5189    4.9096    2.1684 H   0  0  0  0  0  0  0  0  0  0  0  0
    3.2836    5.1438   -1.4746 H   0  0  0  0  0  0  0  0  0  0  0  0
   -6.2168   -2.3396   -0.8968 H   0  0  0  0  0  0  0  0  0  0  0  0
   -5.2063   -3.6153    1.6694 H   0  0  0  0  0  0  0  0  0  0  0  0
   -7.4889   -4.6590    1.7626 H   0  0  0  0  0  0  0  0  0  0  0  0
   -6.4607   -5.1665    0.3764 H   0  0  0  0  0  0  0  0  0  0  0  0
   -7.8061   -4.0182    0.1065 H   0  0  0  0  0  0  0  0  0  0  0  0
   -8.4997   -1.3195    2.6582 H   0  0  0  0  0  0  0  0  0  0  0  0
   -9.1596   -0.0072    0.9406 H   0  0  0  0  0  0  0  0  0  0  0  0
   -8.4749   -2.1505   -1.1077 H   0  0  0  0  0  0  0  0  0  0  0  0
   -9.9476   -1.1407   -0.9005 H   0  0  0  0  0  0  0  0  0  0  0  0
   -9.6711   -2.5016    0.2079 H   0  0  0  0  0  0  0  0  0  0  0  0
   -6.6002    0.5726   -2.0102 H   0  0  0  0  0  0  0  0  0  0  0  0
   -9.4094    1.3290   -1.0704 H   0  0  0  0  0  0  0  0  0  0  0  0
   -9.4516   -0.3187   -2.9558 H   0  0  0  0  0  0  0  0  0  0  0  0
  -10.0279    1.2957   -3.5010 H   0  0  0  0  0  0  0  0  0  0  0  0
   -8.3560    0.7314   -3.9165 H   0  0  0  0  0  0  0  0  0  0  0  0
   -8.3542    4.6832   -1.0204 H   0  0  0  0  0  0  0  0  0  0  0  0
   -6.4514    2.5012   -0.1527 H   0  0  0  0  0  0  0  0  0  0  0  0
   -7.2415    2.7755    3.4594 H   0  0  0  0  0  0  0  0  0  0  0  0
   -5.8401    2.4649    2.3675 H   0  0  0  0  0  0  0  0  0  0  0  0
   -4.9581    4.2112    0.6236 H   0  0  0  0  0  0  0  0  0  0  0  0
   -6.2104    5.4727    0.4599 H   0  0  0  0  0  0  0  0  0  0  0  0
   -5.3755    2.5438   -2.0983 H   0  0  0  0  0  0  0  0  0  0  0  0
   -4.3897    3.3705   -3.3035 H   0  0  0  0  0  0  0  0  0  0  0  0
  1  2  1  0
  2  3  2  0
  2  4  1  0
  4  5  1  0
  5  6  1  0
  6  7  1  0
  7  8  1  0
  8  9  1  0
  9 10  2  0
 10 11  1  0
 11 12  2  0
 12 13  1  0
 13 14  2  0
 13 15  1  0
 15 16  1  0
 16 17  1  0
 17 18  1  0
 18 19  1  0
 19 20  1  0
 20 21  2  0
 20 22  1  0
 22 23  1  0
 22 24  1  0
 24 25  1  0
 25 26  2  0
 25 27  1  0
 27 28  1  0
 27 29  1  0
 29 30  1  0
 30 31  2  0
 30 32  1  0
 32 33  1  0
 32 34  1  0
 34 35  1  0
 35 36  2  0
 35 37  1  0
 37 38  1  0
 37 39  1  0
 39 40  1  0
 40 41  2  0
 40 42  1  0
 42 43  1  0
 42 44  1  0
 44 45  1  0
 45 46  2  0
 45 47  1  0
 47 48  1  0
 47 49  1  0
 49 50  1  0
 50 51  2  0
 50 52  1  0
 52 53  1  0
 52 54  1  0
 54 55  1  0
 55 56  2  0
 55 57  1  0
 57 58  1  0
 57 59  1  0
 59 60  1  0
 60 61  2  0
 18 62  1  0
 62 63  2  0
 62 64  1  0
 64 65  1  0
 65 66  1  0
 65 67  1  0
 67 68  2  0
 67 69  1  0
 69 70  1  0
 70 71  1  0
 70 72  1  0
 72 73  2  0
 72 74  1  0
 74 75  1  0
 75 76  1  0
 75 77  1  0
 77 78  2  0
 77 79  1  0
 79 80  1  0
 80 81  1  0
 81 82  1  0
 81 83  2  0
 80 84  1  0
 84 85  1  0
 85 86  1  0
 60  5  1  0
 14  9  1  0
 86 11  1  0
  1 87  1  0
  1 88  1  0
  1 89  1  0
  4 90  1  0
  5 91  1  6
  6 92  1  0
  6 93  1  0
  8 94  1  0
  8 95  1  0
 10 96  1  0
 12 97  1  0
 14 98  1  0
 15 99  1  0
 15100  1  0
 17101  1  0
 17102  1  0
 18103  1  1
 19104  1  0
 22105  1  1
 23106  1  0
 23107  1  0
 23108  1  0
 24109  1  0
 27110  1  6
 28111  1  0
 28112  1  0
 28113  1  0
 29114  1  0
 32115  1  1
 33116  1  0
 33117  1  0
 33118  1  0
 34119  1  0
 37120  1  6
 38121  1  0
 38122  1  0
 38123  1  0
 39124  1  0
 42125  1  6
 43126  1  0
 43127  1  0
 43128  1  0
 44129  1  0
 47130  1  6
 48131  1  0
 48132  1  0
 48133  1  0
 49134  1  0
 52135  1  1
 53136  1  0
 53137  1  0
 53138  1  0
 54139  1  0
 57140  1  1
 58141  1  0
 58142  1  0
 58143  1  0
 59144  1  0
 64145  1  0
 65146  1  1
 66147  1  0
 66148  1  0
 66149  1  0
 69150  1  0
 70151  1  1
 71152  1  0
 71153  1  0
 71154  1  0
 74155  1  0
 75156  1  1
 76157  1  0
 76158  1  0
 76159  1  0
 79160  1  0
 80161  1  6
 82162  1  0
 82163  1  0
 84164  1  0
 84165  1  0
 86166  1  0
 86167  1  0
M  END
