
     RDKit          3D

177179  0  0  0  0  0  0  0  0999 V2000
    1.0670   10.0015   -0.1467 C   0  0  0  0  0  0  0  0  0  0  0  0
    1.0264    8.6024    0.3799 C   0  0  0  0  0  0  0  0  0  0  0  0
    0.2662    8.3382    1.3501 O   0  0  0  0  0  0  0  0  0  0  0  0
    1.8385    7.5797   -0.2110 N   0  0  0  0  0  0  0  0  0  0  0  0
    1.9432    6.2199    0.3357 C   0  0  1  0  0  0  0  0  0  0  0  0
    1.4425    5.2058   -0.7074 C   0  0  0  0  0  0  0  0  0  0  0  0
   -0.3437    5.4010   -1.0344 S   0  0  0  0  0  0  0  0  0  0  0  0
   -0.9467    4.6038    0.5014 C   0  0  0  0  0  0  0  0  0  0  0  0
   -1.8591    3.4530    0.1689 C   0  0  0  0  0  0  0  0  0  0  0  0
   -3.0823    3.6936   -0.4759 C   0  0  0  0  0  0  0  0  0  0  0  0
   -3.9518    2.6324   -0.7699 C   0  0  0  0  0  0  0  0  0  0  0  0
   -3.6091    1.3325   -0.3739 C   0  0  0  0  0  0  0  0  0  0  0  0
   -2.3957    1.0777    0.2896 C   0  0  0  0  0  0  0  0  0  0  0  0
   -1.5172    2.1415    0.5417 C   0  0  0  0  0  0  0  0  0  0  0  0
   -2.0983   -0.2984    0.8191 C   0  0  0  0  0  0  0  0  0  0  0  0
   -0.5924   -1.0175    0.0665 S   0  0  0  0  0  0  0  0  0  0  0  0
   -1.4078   -2.2020   -1.0690 C   0  0  0  0  0  0  0  0  0  0  0  0
   -1.6250   -3.5984   -0.4417 C   0  0  2  0  0  0  0  0  0  0  0  0
   -1.8758   -4.5841   -1.5029 N   0  0  0  0  0  0  0  0  0  0  0  0
   -1.5600   -5.9861   -1.4398 C   0  0  0  0  0  0  0  0  0  0  0  0
   -1.9965   -6.7460   -2.3476 O   0  0  0  0  0  0  0  0  0  0  0  0
   -0.6468   -6.5765   -0.3854 C   0  0  1  0  0  0  0  0  0  0  0  0
   -1.1480   -7.9506    0.0821 C   0  0  0  0  0  0  0  0  0  0  0  0
    0.7076   -6.7052   -0.9294 N   0  0  0  0  0  0  0  0  0  0  0  0
    1.6732   -5.6604   -0.7719 C   0  0  0  0  0  0  0  0  0  0  0  0
    1.4857   -4.5510   -1.3410 O   0  0  0  0  0  0  0  0  0  0  0  0
    2.8802   -5.8492    0.1127 C   0  0  1  0  0  0  0  0  0  0  0  0
    2.5155   -5.4988    1.5530 C   0  0  0  0  0  0  0  0  0  0  0  0
    3.3777   -7.2303    0.0481 N   0  0  0  0  0  0  0  0  0  0  0  0
    4.7567   -7.6242    0.1651 C   0  0  0  0  0  0  0  0  0  0  0  0
    5.0462   -8.8437    0.0053 O   0  0  0  0  0  0  0  0  0  0  0  0
    5.8834   -6.6429    0.4424 C   0  0  1  0  0  0  0  0  0  0  0  0
    6.7900   -7.1848    1.5572 C   0  0  0  0  0  0  0  0  0  0  0  0
    6.6591   -6.4351   -0.7870 N   0  0  0  0  0  0  0  0  0  0  0  0
    7.2806   -5.1969   -1.1731 C   0  0  0  0  0  0  0  0  0  0  0  0
    7.4803   -4.9812   -2.4001 O   0  0  0  0  0  0  0  0  0  0  0  0
    7.8767   -4.2486   -0.1531 C   0  0  1  0  0  0  0  0  0  0  0  0
    9.3052   -4.7081    0.1651 C   0  0  0  0  0  0  0  0  0  0  0  0
    7.8962   -2.8665   -0.6532 N   0  0  0  0  0  0  0  0  0  0  0  0
    8.4231   -1.7899    0.1355 C   0  0  0  0  0  0  0  0  0  0  0  0
    8.1152   -1.7020    1.3573 O   0  0  0  0  0  0  0  0  0  0  0  0
    9.3732   -0.7726   -0.4548 C   0  0  1  0  0  0  0  0  0  0  0  0
   10.2845   -1.4079   -1.5145 C   0  0  0  0  0  0  0  0  0  0  0  0
    8.6321    0.3490   -1.0424 N   0  0  0  0  0  0  0  0  0  0  0  0
    9.2152    1.6579   -1.1829 C   0  0  0  0  0  0  0  0  0  0  0  0
    9.0432    2.2952   -2.2614 O   0  0  0  0  0  0  0  0  0  0  0  0
   10.0217    2.2887   -0.0751 C   0  0  1  0  0  0  0  0  0  0  0  0
   11.5215    1.9918   -0.2706 C   0  0  0  0  0  0  0  0  0  0  0  0
    9.8163    3.7457   -0.0426 N   0  0  0  0  0  0  0  0  0  0  0  0
    8.6485    4.4119    0.4778 C   0  0  0  0  0  0  0  0  0  0  0  0
    8.7201    5.6521    0.6946 O   0  0  0  0  0  0  0  0  0  0  0  0
    7.3425    3.6903    0.7369 C   0  0  1  0  0  0  0  0  0  0  0  0
    6.7857    3.9328    2.1486 C   0  0  0  0  0  0  0  0  0  0  0  0
    6.3509    3.9546   -0.3257 N   0  0  0  0  0  0  0  0  0  0  0  0
    5.7790    5.2061   -0.7663 C   0  0  0  0  0  0  0  0  0  0  0  0
    5.1831    5.2196   -1.8778 O   0  0  0  0  0  0  0  0  0  0  0  0
    5.7859    6.4859    0.0459 C   0  0  1  0  0  0  0  0  0  0  0  0
    6.3581    7.6349   -0.7960 C   0  0  0  0  0  0  0  0  0  0  0  0
    4.4294    6.8493    0.4908 N   0  0  0  0  0  0  0  0  0  0  0  0
    3.3744    5.8995    0.7089 C   0  0  0  0  0  0  0  0  0  0  0  0
    3.6377    4.7835    1.2322 O   0  0  0  0  0  0  0  0  0  0  0  0
   -2.7599   -3.6212    0.5617 C   0  0  0  0  0  0  0  0  0  0  0  0
   -2.5541   -3.1979    1.7303 O   0  0  0  0  0  0  0  0  0  0  0  0
   -4.0159   -4.2565    0.2590 N   0  0  0  0  0  0  0  0  0  0  0  0
   -5.2751   -3.5516   -0.0440 C   0  0  2  0  0  0  0  0  0  0  0  0
   -5.1125   -2.6286   -1.2468 C   0  0  0  0  0  0  0  0  0  0  0  0
   -5.8138   -2.7715    1.1437 C   0  0  0  0  0  0  0  0  0  0  0  0
   -5.0150   -2.0831    1.8322 O   0  0  0  0  0  0  0  0  0  0  0  0
   -7.2225   -2.6801    1.4534 N   0  0  0  0  0  0  0  0  0  0  0  0
   -8.2890   -3.6019    1.0423 C   0  0  2  0  0  0  0  0  0  0  0  0
   -8.0422   -5.0061    1.6101 C   0  0  0  0  0  0  0  0  0  0  0  0
   -8.5034   -3.5691   -0.4539 C   0  0  0  0  0  0  0  0  0  0  0  0
   -8.4299   -4.6381   -1.1198 O   0  0  0  0  0  0  0  0  0  0  0  0
   -8.7567   -2.3375   -1.1479 N   0  0  0  0  0  0  0  0  0  0  0  0
   -9.5926   -1.2545   -0.6105 C   0  0  2  0  0  0  0  0  0  0  0  0
  -11.0391   -1.5075   -1.0449 C   0  0  0  0  0  0  0  0  0  0  0  0
   -9.0837    0.0841   -1.0980 C   0  0  0  0  0  0  0  0  0  0  0  0
   -7.8732    0.2115   -1.4213 O   0  0  0  0  0  0  0  0  0  0  0  0
   -9.9555    1.2162   -1.2040 N   0  0  0  0  0  0  0  0  0  0  0  0
  -10.1691    2.1418   -0.0824 C   0  0  2  0  0  0  0  0  0  0  0  0
  -11.1827    1.5605    0.9062 C   0  0  0  0  0  0  0  0  0  0  0  0
  -10.6755    3.4753   -0.5964 C   0  0  0  0  0  0  0  0  0  0  0  0
  -11.7678    3.4947   -1.2252 O   0  0  0  0  0  0  0  0  0  0  0  0
   -9.9795    4.7239   -0.4028 N   0  0  0  0  0  0  0  0  0  0  0  0
   -8.6150    4.9213    0.1068 C   0  0  1  0  0  0  0  0  0  0  0  0
   -8.4887    4.6060    1.5875 C   0  0  0  0  0  0  0  0  0  0  0  0
   -9.6449    4.4163    2.4129 N   0  0  0  0  0  0  0  0  0  0  0  0
   -7.3530    4.6375    2.1308 O   0  0  0  0  0  0  0  0  0  0  0  0
   -7.5611    4.2877   -0.8431 C   0  0  0  0  0  0  0  0  0  0  0  0
   -6.5877    2.8926   -0.1515 S   0  0  0  0  0  0  0  0  0  0  0  0
   -5.2768    2.8921   -1.4257 C   0  0  0  0  0  0  0  0  0  0  0  0
    1.4185   10.6893    0.6528 H   0  0  0  0  0  0  0  0  0  0  0  0
    0.0488   10.3052   -0.4729 H   0  0  0  0  0  0  0  0  0  0  0  0
    1.7567   10.0776   -1.0109 H   0  0  0  0  0  0  0  0  0  0  0  0
    2.3891    7.8096   -1.0714 H   0  0  0  0  0  0  0  0  0  0  0  0
    1.3370    6.1266    1.2639 H   0  0  0  0  0  0  0  0  0  0  0  0
    1.9863    5.3542   -1.6661 H   0  0  0  0  0  0  0  0  0  0  0  0
    1.6396    4.1622   -0.3777 H   0  0  0  0  0  0  0  0  0  0  0  0
   -1.5066    5.3550    1.0966 H   0  0  0  0  0  0  0  0  0  0  0  0
   -0.1035    4.2523    1.1419 H   0  0  0  0  0  0  0  0  0  0  0  0
   -3.3617    4.7055   -0.7443 H   0  0  0  0  0  0  0  0  0  0  0  0
   -4.3041    0.5258   -0.5542 H   0  0  0  0  0  0  0  0  0  0  0  0
   -0.5893    1.9549    1.0676 H   0  0  0  0  0  0  0  0  0  0  0  0
   -1.9378   -0.2368    1.9128 H   0  0  0  0  0  0  0  0  0  0  0  0
   -2.9772   -0.9530    0.6694 H   0  0  0  0  0  0  0  0  0  0  0  0
   -2.3402   -1.7788   -1.4887 H   0  0  0  0  0  0  0  0  0  0  0  0
   -0.7184   -2.3205   -1.9300 H   0  0  0  0  0  0  0  0  0  0  0  0
   -0.6852   -3.8478    0.0824 H   0  0  0  0  0  0  0  0  0  0  0  0
   -2.4787   -4.2829   -2.3021 H   0  0  0  0  0  0  0  0  0  0  0  0
   -0.6278   -5.9435    0.5206 H   0  0  0  0  0  0  0  0  0  0  0  0
   -2.1744   -7.8579    0.4922 H   0  0  0  0  0  0  0  0  0  0  0  0
   -0.4738   -8.3413    0.8779 H   0  0  0  0  0  0  0  0  0  0  0  0
   -1.1579   -8.6772   -0.7555 H   0  0  0  0  0  0  0  0  0  0  0  0
    0.9275   -7.4891   -1.5883 H   0  0  0  0  0  0  0  0  0  0  0  0
    3.6576   -5.1467   -0.2561 H   0  0  0  0  0  0  0  0  0  0  0  0
    3.4123   -5.5890    2.2048 H   0  0  0  0  0  0  0  0  0  0  0  0
    2.1393   -4.4565    1.6122 H   0  0  0  0  0  0  0  0  0  0  0  0
    1.7313   -6.1898    1.9319 H   0  0  0  0  0  0  0  0  0  0  0  0
    2.6781   -8.0075    0.0502 H   0  0  0  0  0  0  0  0  0  0  0  0
    5.4745   -5.6810    0.7969 H   0  0  0  0  0  0  0  0  0  0  0  0
    7.3697   -8.0630    1.2055 H   0  0  0  0  0  0  0  0  0  0  0  0
    6.1806   -7.4773    2.4355 H   0  0  0  0  0  0  0  0  0  0  0  0
    7.4947   -6.4004    1.8900 H   0  0  0  0  0  0  0  0  0  0  0  0
    6.7027   -7.2154   -1.4825 H   0  0  0  0  0  0  0  0  0  0  0  0
    7.2784   -4.2704    0.7803 H   0  0  0  0  0  0  0  0  0  0  0  0
    9.3106   -5.7587    0.5209 H   0  0  0  0  0  0  0  0  0  0  0  0
    9.7544   -4.0771    0.9611 H   0  0  0  0  0  0  0  0  0  0  0  0
    9.9438   -4.6443   -0.7450 H   0  0  0  0  0  0  0  0  0  0  0  0
    7.5845   -2.6407   -1.6243 H   0  0  0  0  0  0  0  0  0  0  0  0
   10.0147   -0.4117    0.3765 H   0  0  0  0  0  0  0  0  0  0  0  0
   10.9777   -0.6487   -1.9347 H   0  0  0  0  0  0  0  0  0  0  0  0
    9.6883   -1.8192   -2.3577 H   0  0  0  0  0  0  0  0  0  0  0  0
   10.8892   -2.2272   -1.0644 H   0  0  0  0  0  0  0  0  0  0  0  0
    7.8374    0.1142   -1.6827 H   0  0  0  0  0  0  0  0  0  0  0  0
    9.7244    1.8647    0.9073 H   0  0  0  0  0  0  0  0  0  0  0  0
   12.1066    2.4277    0.5702 H   0  0  0  0  0  0  0  0  0  0  0  0
   11.8828    2.4412   -1.2205 H   0  0  0  0  0  0  0  0  0  0  0  0
   11.7271    0.9081   -0.3041 H   0  0  0  0  0  0  0  0  0  0  0  0
   10.6095    4.3677   -0.3235 H   0  0  0  0  0  0  0  0  0  0  0  0
    7.5388    2.5969    0.7165 H   0  0  0  0  0  0  0  0  0  0  0  0
    6.8158    4.9909    2.4603 H   0  0  0  0  0  0  0  0  0  0  0  0
    5.7445    3.5567    2.2216 H   0  0  0  0  0  0  0  0  0  0  0  0
    7.4003    3.3661    2.8848 H   0  0  0  0  0  0  0  0  0  0  0  0
    6.0889    3.1191   -0.8950 H   0  0  0  0  0  0  0  0  0  0  0  0
    6.4237    6.4011    0.9336 H   0  0  0  0  0  0  0  0  0  0  0  0
    5.6299    7.9354   -1.5746 H   0  0  0  0  0  0  0  0  0  0  0  0
    6.5540    8.5125   -0.1421 H   0  0  0  0  0  0  0  0  0  0  0  0
    7.3120    7.3309   -1.2759 H   0  0  0  0  0  0  0  0  0  0  0  0
    4.2481    7.8492    0.7415 H   0  0  0  0  0  0  0  0  0  0  0  0
   -4.0010   -5.2933    0.1282 H   0  0  0  0  0  0  0  0  0  0  0  0
   -6.0051   -4.3203   -0.3504 H   0  0  0  0  0  0  0  0  0  0  0  0
   -4.4796   -1.7594   -0.9912 H   0  0  0  0  0  0  0  0  0  0  0  0
   -6.1001   -2.2405   -1.5761 H   0  0  0  0  0  0  0  0  0  0  0  0
   -4.6612   -3.1830   -2.0979 H   0  0  0  0  0  0  0  0  0  0  0  0
   -7.5000   -1.9233    2.1203 H   0  0  0  0  0  0  0  0  0  0  0  0
   -9.2388   -3.2578    1.5116 H   0  0  0  0  0  0  0  0  0  0  0  0
   -7.8779   -4.9422    2.7092 H   0  0  0  0  0  0  0  0  0  0  0  0
   -7.1595   -5.4953    1.1525 H   0  0  0  0  0  0  0  0  0  0  0  0
   -8.9326   -5.6476    1.4364 H   0  0  0  0  0  0  0  0  0  0  0  0
   -8.6168   -2.3492   -2.1846 H   0  0  0  0  0  0  0  0  0  0  0  0
   -9.5492   -1.2400    0.4958 H   0  0  0  0  0  0  0  0  0  0  0  0
  -11.4036   -2.4610   -0.6096 H   0  0  0  0  0  0  0  0  0  0  0  0
  -11.7146   -0.6911   -0.7141 H   0  0  0  0  0  0  0  0  0  0  0  0
  -11.1023   -1.5686   -2.1528 H   0  0  0  0  0  0  0  0  0  0  0  0
  -10.1883    1.5273   -2.1779 H   0  0  0  0  0  0  0  0  0  0  0  0
   -9.2145    2.2747    0.4587 H   0  0  0  0  0  0  0  0  0  0  0  0
  -11.3630    2.2704    1.7397 H   0  0  0  0  0  0  0  0  0  0  0  0
  -10.7976    0.6160    1.3435 H   0  0  0  0  0  0  0  0  0  0  0  0
  -12.1519    1.3591    0.4016 H   0  0  0  0  0  0  0  0  0  0  0  0
  -10.4825    5.5872   -0.7135 H   0  0  0  0  0  0  0  0  0  0  0  0
   -8.4288    6.0207    0.0598 H   0  0  0  0  0  0  0  0  0  0  0  0
   -9.5302    4.1726    3.4236 H   0  0  0  0  0  0  0  0  0  0  0  0
  -10.6101    4.6013    2.0500 H   0  0  0  0  0  0  0  0  0  0  0  0
   -6.8581    5.0947   -1.1331 H   0  0  0  0  0  0  0  0  0  0  0  0
   -8.0435    3.9317   -1.7814 H   0  0  0  0  0  0  0  0  0  0  0  0
   -5.2369    3.8463   -1.9907 H   0  0  0  0  0  0  0  0  0  0  0  0
   -5.4929    2.0948   -2.1698 H   0  0  0  0  0  0  0  0  0  0  0  0
  1  2  1  0
  2  3  2  0
  2  4  1  0
  4  5  1  0
  5  6  1  0
  6  7  1  0
  7  8  1  0
  8  9  1  0
  9 10  2  0
 10 11  1  0
 11 12  2  0
 12 13  1  0
 13 14  2  0
 13 15  1  0
 15 16  1  0
 16 17  1  0
 17 18  1  0
 18 19  1  0
 19 20  1  0
 20 21  2  0
 20 22  1  0
 22 23  1  0
 22 24  1  0
 24 25  1  0
 25 26  2  0
 25 27  1  0
 27 28  1  0
 27 29  1  0
 29 30  1  0
 30 31  2  0
 30 32  1  0
 32 33  1  0
 32 34  1  0
 34 35  1  0
 35 36  2  0
 35 37  1  0
 37 38  1  0
 37 39  1  0
 39 40  1  0
 40 41  2  0
 40 42  1  0
 42 43  1  0
 42 44  1  0
 44 45  1  0
 45 46  2  0
 45 47  1  0
 47 48  1  0
 47 49  1  0
 49 50  1  0
 50 51  2  0
 50 52  1  0
 52 53  1  0
 52 54  1  0
 54 55  1  0
 55 56  2  0
 55 57  1  0
 57 58  1  0
 57 59  1  0
 59 60  1  0
 60 61  2  0
 18 62  1  0
 62 63  2  0
 62 64  1  0
 64 65  1  0
 65 66  1  0
 65 67  1  0
 67 68  2  0
 67 69  1  0
 69 70  1  0
 70 71  1  0
 70 72  1  0
 72 73  2  0
 72 74  1  0
 74 75  1  0
 75 76  1  0
 75 77  1  0
 77 78  2  0
 77 79  1  0
 79 80  1  0
 80 81  1  0
 80 82  1  0
 82 83  2  0
 82 84  1  0
 84 85  1  0
 85 86  1  0
 86 87  1  0
 86 88  2  0
 85 89  1  0
 89 90  1  0
 90 91  1  0
 60  5  1  0
 14  9  1  0
 91 11  1  0
  1 92  1  0
  1 93  1  0
  1 94  1  0
  4 95  1  0
  5 96  1  1
  6 97  1  0
  6 98  1  0
  8 99  1  0
  8100  1  0
 10101  1  0
 12102  1  0
 14103  1  0
 15104  1  0
 15105  1  0
 17106  1  0
 17107  1  0
 18108  1  1
 19109  1  0
 22110  1  1
 23111  1  0
 23112  1  0
 23113  1  0
 24114  1  0
 27115  1  6
 28116  1  0
 28117  1  0
 28118  1  0
 29119  1  0
 32120  1  1
 33121  1  0
 33122  1  0
 33123  1  0
 34124  1  0
 37125  1  1
 38126  1  0
 38127  1  0
 38128  1  0
 39129  1  0
 42130  1  1
 43131  1  0
 43132  1  0
 43133  1  0
 44134  1  0
 47135  1  1
 48136  1  0
 48137  1  0
 48138  1  0
 49139  1  0
 52140  1  1
 53141  1  0
 53142  1  0
 53143  1  0
 54144  1  0
 57145  1  1
 58146  1  0
 58147  1  0
 58148  1  0
 59149  1  0
 64150  1  0
 65151  1  6
 66152  1  0
 66153  1  0
 66154  1  0
 69155  1  0
 70156  1  1
 71157  1  0
 71158  1  0
 71159  1  0
 74160  1  0
 75161  1  1
 76162  1  0
 76163  1  0
 76164  1  0
 79165  1  0
 80166  1  1
 81167  1  0
 81168  1  0
 81169  1  0
 84170  1  0
 85171  1  1
 87172  1  0
 87173  1  0
 89174  1  0
 89175  1  0
 91176  1  0
 91177  1  0
M  END
