
     RDKit          3D

197199  0  0  0  0  0  0  0  0999 V2000
    2.4320    9.0842    1.8652 C   0  0  0  0  0  0  0  0  0  0  0  0
    2.8944    7.6746    1.6750 C   0  0  0  0  0  0  0  0  0  0  0  0
    3.1500    6.9773    2.6847 O   0  0  0  0  0  0  0  0  0  0  0  0
    3.0505    7.1263    0.3573 N   0  0  0  0  0  0  0  0  0  0  0  0
    3.4457    5.7368    0.0945 C   0  0  2  0  0  0  0  0  0  0  0  0
    2.3597    4.7709    0.6241 C   0  0  0  0  0  0  0  0  0  0  0  0
    2.4862    3.1171   -0.1590 S   0  0  0  0  0  0  0  0  0  0  0  0
    1.4664    3.4973   -1.6276 C   0  0  0  0  0  0  0  0  0  0  0  0
    0.0080    3.2795   -1.3303 C   0  0  0  0  0  0  0  0  0  0  0  0
   -0.8590    4.3720   -1.1823 C   0  0  0  0  0  0  0  0  0  0  0  0
   -2.2259    4.1652   -0.9515 C   0  0  0  0  0  0  0  0  0  0  0  0
   -2.7258    2.8560   -0.9045 C   0  0  0  0  0  0  0  0  0  0  0  0
   -1.8815    1.7521   -1.0774 C   0  0  0  0  0  0  0  0  0  0  0  0
   -0.5010    1.9726   -1.2711 C   0  0  0  0  0  0  0  0  0  0  0  0
   -2.4880    0.3696   -0.9891 C   0  0  0  0  0  0  0  0  0  0  0  0
   -1.5168   -0.9387   -1.8368 S   0  0  0  0  0  0  0  0  0  0  0  0
   -0.9052   -1.7864   -0.3312 C   0  0  0  0  0  0  0  0  0  0  0  0
   -0.5134   -3.2494   -0.6046 C   0  0  2  0  0  0  0  0  0  0  0  0
    0.7227   -3.3246   -1.3977 N   0  0  0  0  0  0  0  0  0  0  0  0
    1.5143   -4.5194   -1.5318 C   0  0  0  0  0  0  0  0  0  0  0  0
    2.3776   -4.5657   -2.4456 O   0  0  0  0  0  0  0  0  0  0  0  0
    1.3273   -5.7182   -0.6159 C   0  0  1  0  0  0  0  0  0  0  0  0
    2.1306   -6.9521   -1.0451 C   0  0  0  0  0  0  0  0  0  0  0  0
    1.5792   -5.3936    0.7953 N   0  0  0  0  0  0  0  0  0  0  0  0
    2.8256   -4.9938    1.4036 C   0  0  0  0  0  0  0  0  0  0  0  0
    2.9126   -5.0640    2.6593 O   0  0  0  0  0  0  0  0  0  0  0  0
    4.0005   -4.4208    0.6306 C   0  0  1  0  0  0  0  0  0  0  0  0
    4.7116   -3.3021    1.4073 C   0  0  0  0  0  0  0  0  0  0  0  0
    4.9652   -5.4641    0.2438 N   0  0  0  0  0  0  0  0  0  0  0  0
    5.7174   -6.2655    1.1725 C   0  0  0  0  0  0  0  0  0  0  0  0
    5.3676   -6.3204    2.3795 O   0  0  0  0  0  0  0  0  0  0  0  0
    7.0171   -6.9392    0.7669 C   0  0  1  0  0  0  0  0  0  0  0  0
    7.0816   -8.3727    1.3042 C   0  0  0  0  0  0  0  0  0  0  0  0
    7.1883   -6.9640   -0.6896 N   0  0  0  0  0  0  0  0  0  0  0  0
    7.9569   -5.9786   -1.4044 C   0  0  0  0  0  0  0  0  0  0  0  0
    7.4857   -5.4876   -2.4705 O   0  0  0  0  0  0  0  0  0  0  0  0
    9.3123   -5.5227   -0.9089 C   0  0  1  0  0  0  0  0  0  0  0  0
   10.2282   -6.7232   -0.6294 C   0  0  0  0  0  0  0  0  0  0  0  0
    9.9646   -4.6584   -1.9079 N   0  0  0  0  0  0  0  0  0  0  0  0
   10.5219   -3.3473   -1.6638 C   0  0  0  0  0  0  0  0  0  0  0  0
   11.1852   -2.7969   -2.5864 O   0  0  0  0  0  0  0  0  0  0  0  0
   10.3813   -2.6293   -0.3360 C   0  0  1  0  0  0  0  0  0  0  0  0
   11.3762   -3.1891    0.6898 C   0  0  0  0  0  0  0  0  0  0  0  0
   10.6142   -1.1878   -0.5051 N   0  0  0  0  0  0  0  0  0  0  0  0
    9.5346   -0.2496   -0.3874 C   0  0  0  0  0  0  0  0  0  0  0  0
    8.4303   -0.4997   -0.9443 O   0  0  0  0  0  0  0  0  0  0  0  0
    9.6930    1.0251    0.4017 C   0  0  1  0  0  0  0  0  0  0  0  0
   10.4926    0.7804    1.6928 C   0  0  0  0  0  0  0  0  0  0  0  0
   10.3475    2.0619   -0.4090 N   0  0  0  0  0  0  0  0  0  0  0  0
   10.2620    3.4764   -0.1560 C   0  0  0  0  0  0  0  0  0  0  0  0
   11.0046    4.2526   -0.8236 O   0  0  0  0  0  0  0  0  0  0  0  0
    9.2819    4.0787    0.8342 C   0  0  1  0  0  0  0  0  0  0  0  0
    9.9444    5.1385    1.7266 C   0  0  0  0  0  0  0  0  0  0  0  0
    8.1063    4.6060    0.1369 N   0  0  0  0  0  0  0  0  0  0  0  0
    8.0396    5.8890   -0.5062 C   0  0  0  0  0  0  0  0  0  0  0  0
    9.0924    6.4379   -0.9417 O   0  0  0  0  0  0  0  0  0  0  0  0
    6.7153    6.5820   -0.7100 C   0  0  1  0  0  0  0  0  0  0  0  0
    6.0406    6.0766   -1.9915 C   0  0  0  0  0  0  0  0  0  0  0  0
    5.8758    6.4417    0.4909 N   0  0  0  0  0  0  0  0  0  0  0  0
    4.8281    5.4716    0.6559 C   0  0  0  0  0  0  0  0  0  0  0  0
    5.0331    4.4682    1.3886 O   0  0  0  0  0  0  0  0  0  0  0  0
   -1.6138   -4.0207   -1.2923 C   0  0  0  0  0  0  0  0  0  0  0  0
   -1.6903   -4.0198   -2.5523 O   0  0  0  0  0  0  0  0  0  0  0  0
   -2.5288   -4.8359   -0.5492 N   0  0  0  0  0  0  0  0  0  0  0  0
   -3.4013   -4.2935    0.5047 C   0  0  2  0  0  0  0  0  0  0  0  0
   -2.7373   -4.4482    1.8804 C   0  0  0  0  0  0  0  0  0  0  0  0
   -4.7272   -5.0175    0.4765 C   0  0  0  0  0  0  0  0  0  0  0  0
   -4.8011   -6.1696    0.9858 O   0  0  0  0  0  0  0  0  0  0  0  0
   -5.8744   -4.5047   -0.2206 N   0  0  0  0  0  0  0  0  0  0  0  0
   -6.0309   -3.1203   -0.6894 C   0  0  2  0  0  0  0  0  0  0  0  0
   -6.2325   -2.1300    0.4677 C   0  0  0  0  0  0  0  0  0  0  0  0
   -7.1617   -3.0130   -1.6947 C   0  0  0  0  0  0  0  0  0  0  0  0
   -6.8798   -2.5952   -2.8514 O   0  0  0  0  0  0  0  0  0  0  0  0
   -8.5357   -3.3462   -1.4064 N   0  0  0  0  0  0  0  0  0  0  0  0
   -9.0616   -3.9792   -0.1883 C   0  0  2  0  0  0  0  0  0  0  0  0
   -9.6841   -5.3279   -0.5590 C   0  0  0  0  0  0  0  0  0  0  0  0
  -10.0878   -3.0878    0.4641 C   0  0  0  0  0  0  0  0  0  0  0  0
  -10.8162   -3.5470    1.3814 O   0  0  0  0  0  0  0  0  0  0  0  0
  -10.1903   -1.7024    0.0713 N   0  0  0  0  0  0  0  0  0  0  0  0
  -11.4169   -0.8955    0.0553 C   0  0  2  0  0  0  0  0  0  0  0  0
  -12.7046   -1.7463    0.0701 C   0  0  0  0  0  0  0  0  0  0  0  0
  -11.3945   -0.0420   -1.1890 C   0  0  0  0  0  0  0  0  0  0  0  0
  -11.4174   -0.6195   -2.3094 O   0  0  0  0  0  0  0  0  0  0  0  0
  -11.2444    1.3907   -1.1512 N   0  0  0  0  0  0  0  0  0  0  0  0
  -11.8737    2.2522   -0.1477 C   0  0  2  0  0  0  0  0  0  0  0  0
  -13.3898    2.3022   -0.3700 C   0  0  0  0  0  0  0  0  0  0  0  0
  -11.2905    3.6452   -0.2268 C   0  0  0  0  0  0  0  0  0  0  0  0
  -11.5510    4.3697   -1.2248 O   0  0  0  0  0  0  0  0  0  0  0  0
  -10.4514    4.1611    0.8124 N   0  0  0  0  0  0  0  0  0  0  0  0
   -9.3031    3.4025    1.3391 C   0  0  2  0  0  0  0  0  0  0  0  0
   -9.1020    3.7488    2.8104 C   0  0  0  0  0  0  0  0  0  0  0  0
   -8.1004    3.7106    0.4823 C   0  0  0  0  0  0  0  0  0  0  0  0
   -8.0373    3.2073   -0.6688 O   0  0  0  0  0  0  0  0  0  0  0  0
   -7.1262    4.6878    0.8749 N   0  0  0  0  0  0  0  0  0  0  0  0
   -6.5036    5.5671   -0.1076 C   0  0  1  0  0  0  0  0  0  0  0  0
   -7.5439    6.5208   -0.6454 C   0  0  0  0  0  0  0  0  0  0  0  0
   -8.3752    7.2734    0.2411 N   0  0  0  0  0  0  0  0  0  0  0  0
   -7.7140    6.6269   -1.8908 O   0  0  0  0  0  0  0  0  0  0  0  0
   -5.3380    6.3667    0.5000 C   0  0  0  0  0  0  0  0  0  0  0  0
   -3.9233    5.2739    0.8935 S   0  0  0  0  0  0  0  0  0  0  0  0
   -3.1587    5.3278   -0.7700 C   0  0  0  0  0  0  0  0  0  0  0  0
    1.4878    9.0815    2.4493 H   0  0  0  0  0  0  0  0  0  0  0  0
    3.2001    9.6540    2.4272 H   0  0  0  0  0  0  0  0  0  0  0  0
    2.2469    9.5834    0.8962 H   0  0  0  0  0  0  0  0  0  0  0  0
    2.8949    7.7525   -0.4610 H   0  0  0  0  0  0  0  0  0  0  0  0
    3.4973    5.6054   -1.0062 H   0  0  0  0  0  0  0  0  0  0  0  0
    1.3529    5.2049    0.4385 H   0  0  0  0  0  0  0  0  0  0  0  0
    2.4492    4.6483    1.7258 H   0  0  0  0  0  0  0  0  0  0  0  0
    1.7705    2.8125   -2.4552 H   0  0  0  0  0  0  0  0  0  0  0  0
    1.6611    4.5300   -1.9848 H   0  0  0  0  0  0  0  0  0  0  0  0
   -0.4682    5.3760   -1.2473 H   0  0  0  0  0  0  0  0  0  0  0  0
   -3.7845    2.6980   -0.7217 H   0  0  0  0  0  0  0  0  0  0  0  0
    0.1771    1.1345   -1.3567 H   0  0  0  0  0  0  0  0  0  0  0  0
   -2.6878    0.1366    0.0781 H   0  0  0  0  0  0  0  0  0  0  0  0
   -3.4722    0.3925   -1.5041 H   0  0  0  0  0  0  0  0  0  0  0  0
   -1.6638   -1.7711    0.4744 H   0  0  0  0  0  0  0  0  0  0  0  0
   -0.0228   -1.2344    0.0484 H   0  0  0  0  0  0  0  0  0  0  0  0
   -0.3258   -3.7146    0.3842 H   0  0  0  0  0  0  0  0  0  0  0  0
    0.9310   -2.5455   -2.0560 H   0  0  0  0  0  0  0  0  0  0  0  0
    0.2594   -6.0096   -0.7051 H   0  0  0  0  0  0  0  0  0  0  0  0
    1.9875   -7.7714   -0.3098 H   0  0  0  0  0  0  0  0  0  0  0  0
    3.2078   -6.7267   -1.1213 H   0  0  0  0  0  0  0  0  0  0  0  0
    1.7725   -7.3049   -2.0356 H   0  0  0  0  0  0  0  0  0  0  0  0
    0.7994   -5.6009    1.4539 H   0  0  0  0  0  0  0  0  0  0  0  0
    3.6314   -3.9368   -0.2856 H   0  0  0  0  0  0  0  0  0  0  0  0
    5.5526   -2.8909    0.8000 H   0  0  0  0  0  0  0  0  0  0  0  0
    5.1253   -3.6773    2.3645 H   0  0  0  0  0  0  0  0  0  0  0  0
    4.0000   -2.4726    1.6276 H   0  0  0  0  0  0  0  0  0  0  0  0
    5.1836   -5.5241   -0.7744 H   0  0  0  0  0  0  0  0  0  0  0  0
    7.8372   -6.3662    1.2413 H   0  0  0  0  0  0  0  0  0  0  0  0
    6.2254   -8.9770    0.9313 H   0  0  0  0  0  0  0  0  0  0  0  0
    7.0684   -8.3713    2.4158 H   0  0  0  0  0  0  0  0  0  0  0  0
    8.0272   -8.8633    0.9790 H   0  0  0  0  0  0  0  0  0  0  0  0
    6.5295   -7.5594   -1.2535 H   0  0  0  0  0  0  0  0  0  0  0  0
    9.1619   -4.9786    0.0373 H   0  0  0  0  0  0  0  0  0  0  0  0
   10.2918   -7.3834   -1.5200 H   0  0  0  0  0  0  0  0  0  0  0  0
    9.8515   -7.3104    0.2371 H   0  0  0  0  0  0  0  0  0  0  0  0
   11.2470   -6.3701   -0.3689 H   0  0  0  0  0  0  0  0  0  0  0  0
   10.1345   -5.0756   -2.8511 H   0  0  0  0  0  0  0  0  0  0  0  0
    9.3491   -2.7794    0.0526 H   0  0  0  0  0  0  0  0  0  0  0  0
   12.3498   -3.4067    0.2085 H   0  0  0  0  0  0  0  0  0  0  0  0
   11.5334   -2.4602    1.5116 H   0  0  0  0  0  0  0  0  0  0  0  0
   10.9899   -4.1243    1.1416 H   0  0  0  0  0  0  0  0  0  0  0  0
   11.5966   -0.8345   -0.5239 H   0  0  0  0  0  0  0  0  0  0  0  0
    8.6637    1.3434    0.6749 H   0  0  0  0  0  0  0  0  0  0  0  0
   10.4794    1.6881    2.3277 H   0  0  0  0  0  0  0  0  0  0  0  0
   10.0483   -0.0636    2.2679 H   0  0  0  0  0  0  0  0  0  0  0  0
   11.5531    0.5400    1.4571 H   0  0  0  0  0  0  0  0  0  0  0  0
   11.0689    1.7455   -1.1030 H   0  0  0  0  0  0  0  0  0  0  0  0
    8.9301    3.2960    1.5340 H   0  0  0  0  0  0  0  0  0  0  0  0
   10.7167    4.6588    2.3646 H   0  0  0  0  0  0  0  0  0  0  0  0
    9.1845    5.5977    2.3935 H   0  0  0  0  0  0  0  0  0  0  0  0
   10.4360    5.9340    1.1300 H   0  0  0  0  0  0  0  0  0  0  0  0
    7.2496    4.0013    0.1069 H   0  0  0  0  0  0  0  0  0  0  0  0
    6.9087    7.6668   -0.8530 H   0  0  0  0  0  0  0  0  0  0  0  0
    6.7206    6.2037   -2.8629 H   0  0  0  0  0  0  0  0  0  0  0  0
    5.7878    5.0038   -1.8954 H   0  0  0  0  0  0  0  0  0  0  0  0
    5.1268    6.6782   -2.1984 H   0  0  0  0  0  0  0  0  0  0  0  0
    6.2617    6.8501    1.3729 H   0  0  0  0  0  0  0  0  0  0  0  0
   -2.8039   -5.7406   -1.0003 H   0  0  0  0  0  0  0  0  0  0  0  0
   -3.5532   -3.2096    0.3258 H   0  0  0  0  0  0  0  0  0  0  0  0
   -3.4757   -4.2494    2.6858 H   0  0  0  0  0  0  0  0  0  0  0  0
   -2.3352   -5.4782    2.0062 H   0  0  0  0  0  0  0  0  0  0  0  0
   -1.9112   -3.7161    2.0037 H   0  0  0  0  0  0  0  0  0  0  0  0
   -6.5886   -5.2173   -0.4985 H   0  0  0  0  0  0  0  0  0  0  0  0
   -5.0992   -2.8217   -1.2246 H   0  0  0  0  0  0  0  0  0  0  0  0
   -6.2721   -1.0908    0.0671 H   0  0  0  0  0  0  0  0  0  0  0  0
   -7.1741   -2.3128    1.0194 H   0  0  0  0  0  0  0  0  0  0  0  0
   -5.4003   -2.1924    1.1936 H   0  0  0  0  0  0  0  0  0  0  0  0
   -9.2300   -3.1502   -2.1667 H   0  0  0  0  0  0  0  0  0  0  0  0
   -8.2685   -4.1752    0.5558 H   0  0  0  0  0  0  0  0  0  0  0  0
   -9.9244   -5.9033    0.3601 H   0  0  0  0  0  0  0  0  0  0  0  0
  -10.6109   -5.1794   -1.1525 H   0  0  0  0  0  0  0  0  0  0  0  0
   -8.9641   -5.9288   -1.1580 H   0  0  0  0  0  0  0  0  0  0  0  0
   -9.2914   -1.2096   -0.1413 H   0  0  0  0  0  0  0  0  0  0  0  0
  -11.4188   -0.2664    0.9696 H   0  0  0  0  0  0  0  0  0  0  0  0
  -12.6519   -2.5619   -0.6810 H   0  0  0  0  0  0  0  0  0  0  0  0
  -12.8792   -2.1839    1.0794 H   0  0  0  0  0  0  0  0  0  0  0  0
  -13.5911   -1.1176   -0.1595 H   0  0  0  0  0  0  0  0  0  0  0  0
  -10.8973    1.8345   -2.0330 H   0  0  0  0  0  0  0  0  0  0  0  0
  -11.6881    1.8604    0.8702 H   0  0  0  0  0  0  0  0  0  0  0  0
  -13.8253    1.2927   -0.2220 H   0  0  0  0  0  0  0  0  0  0  0  0
  -13.8621    3.0049    0.3499 H   0  0  0  0  0  0  0  0  0  0  0  0
  -13.6130    2.6403   -1.4059 H   0  0  0  0  0  0  0  0  0  0  0  0
  -10.4077    5.2030    0.9092 H   0  0  0  0  0  0  0  0  0  0  0  0
   -9.4912    2.3112    1.2789 H   0  0  0  0  0  0  0  0  0  0  0  0
  -10.0106    3.4808    3.3892 H   0  0  0  0  0  0  0  0  0  0  0  0
   -8.2419    3.1743    3.2220 H   0  0  0  0  0  0  0  0  0  0  0  0
   -8.9219    4.8405    2.9392 H   0  0  0  0  0  0  0  0  0  0  0  0
   -6.7389    4.6342    1.8533 H   0  0  0  0  0  0  0  0  0  0  0  0
   -6.1209    4.9596   -0.9532 H   0  0  0  0  0  0  0  0  0  0  0  0
   -9.1271    7.8927   -0.1403 H   0  0  0  0  0  0  0  0  0  0  0  0
   -8.3029    7.1532    1.2777 H   0  0  0  0  0  0  0  0  0  0  0  0
   -5.6858    6.8586    1.4419 H   0  0  0  0  0  0  0  0  0  0  0  0
   -5.0111    7.1687   -0.1967 H   0  0  0  0  0  0  0  0  0  0  0  0
   -3.9274    5.2947   -1.5643 H   0  0  0  0  0  0  0  0  0  0  0  0
   -2.6244    6.3026   -0.8686 H   0  0  0  0  0  0  0  0  0  0  0  0
  1  2  1  0
  2  3  2  0
  2  4  1  0
  4  5  1  0
  5  6  1  0
  6  7  1  0
  7  8  1  0
  8  9  1  0
  9 10  2  0
 10 11  1  0
 11 12  2  0
 12 13  1  0
 13 14  2  0
 13 15  1  0
 15 16  1  0
 16 17  1  0
 17 18  1  0
 18 19  1  0
 19 20  1  0
 20 21  2  0
 20 22  1  0
 22 23  1  0
 22 24  1  0
 24 25  1  0
 25 26  2  0
 25 27  1  0
 27 28  1  0
 27 29  1  0
 29 30  1  0
 30 31  2  0
 30 32  1  0
 32 33  1  0
 32 34  1  0
 34 35  1  0
 35 36  2  0
 35 37  1  0
 37 38  1  0
 37 39  1  0
 39 40  1  0
 40 41  2  0
 40 42  1  0
 42 43  1  0
 42 44  1  0
 44 45  1  0
 45 46  2  0
 45 47  1  0
 47 48  1  0
 47 49  1  0
 49 50  1  0
 50 51  2  0
 50 52  1  0
 52 53  1  0
 52 54  1  0
 54 55  1  0
 55 56  2  0
 55 57  1  0
 57 58  1  0
 57 59  1  0
 59 60  1  0
 60 61  2  0
 18 62  1  0
 62 63  2  0
 62 64  1  0
 64 65  1  0
 65 66  1  0
 65 67  1  0
 67 68  2  0
 67 69  1  0
 69 70  1  0
 70 71  1  0
 70 72  1  0
 72 73  2  0
 72 74  1  0
 74 75  1  0
 75 76  1  0
 75 77  1  0
 77 78  2  0
 77 79  1  0
 79 80  1  0
 80 81  1  0
 80 82  1  0
 82 83  2  0
 82 84  1  0
 84 85  1  0
 85 86  1  0
 85 87  1  0
 87 88  2  0
 87 89  1  0
 89 90  1  0
 90 91  1  0
 90 92  1  0
 92 93  2  0
 92 94  1  0
 94 95  1  0
 95 96  1  0
 96 97  1  0
 96 98  2  0
 95 99  1  0
 99100  1  0
100101  1  0
 60  5  1  0
 14  9  1  0
101 11  1  0
  1102  1  0
  1103  1  0
  1104  1  0
  4105  1  0
  5106  1  6
  6107  1  0
  6108  1  0
  8109  1  0
  8110  1  0
 10111  1  0
 12112  1  0
 14113  1  0
 15114  1  0
 15115  1  0
 17116  1  0
 17117  1  0
 18118  1  1
 19119  1  0
 22120  1  1
 23121  1  0
 23122  1  0
 23123  1  0
 24124  1  0
 27125  1  6
 28126  1  0
 28127  1  0
 28128  1  0
 29129  1  0
 32130  1  1
 33131  1  0
 33132  1  0
 33133  1  0
 34134  1  0
 37135  1  1
 38136  1  0
 38137  1  0
 38138  1  0
 39139  1  0
 42140  1  1
 43141  1  0
 43142  1  0
 43143  1  0
 44144  1  0
 47145  1  1
 48146  1  0
 48147  1  0
 48148  1  0
 49149  1  0
 52150  1  1
 53151  1  0
 53152  1  0
 53153  1  0
 54154  1  0
 57155  1  6
 58156  1  0
 58157  1  0
 58158  1  0
 59159  1  0
 64160  1  0
 65161  1  6
 66162  1  0
 66163  1  0
 66164  1  0
 69165  1  0
 70166  1  6
 71167  1  0
 71168  1  0
 71169  1  0
 74170  1  0
 75171  1  1
 76172  1  0
 76173  1  0
 76174  1  0
 79175  1  0
 80176  1  1
 81177  1  0
 81178  1  0
 81179  1  0
 84180  1  0
 85181  1  1
 86182  1  0
 86183  1  0
 86184  1  0
 89185  1  0
 90186  1  1
 91187  1  0
 91188  1  0
 91189  1  0
 94190  1  0
 95191  1  6
 97192  1  0
 97193  1  0
 99194  1  0
 99195  1  0
101196  1  0
101197  1  0
M  END
