
     RDKit          3D

197199  0  0  0  0  0  0  0  0999 V2000
    2.0512   -7.7736    2.4915 C   0  0  0  0  0  0  0  0  0  0  0  0
    1.7074   -8.3356    1.1528 C   0  0  0  0  0  0  0  0  0  0  0  0
    0.6706   -9.0406    1.0228 O   0  0  0  0  0  0  0  0  0  0  0  0
    2.5678   -8.1464    0.0228 N   0  0  0  0  0  0  0  0  0  0  0  0
    2.7225   -6.8769   -0.7101 C   0  0  1  0  0  0  0  0  0  0  0  0
    2.1895   -5.6507    0.0674 C   0  0  0  0  0  0  0  0  0  0  0  0
    1.9558   -4.2317   -1.0662 S   0  0  0  0  0  0  0  0  0  0  0  0
    0.1736   -4.5167   -1.4005 C   0  0  0  0  0  0  0  0  0  0  0  0
   -0.6814   -3.7886   -0.3917 C   0  0  0  0  0  0  0  0  0  0  0  0
   -1.6991   -4.4542    0.3044 C   0  0  0  0  0  0  0  0  0  0  0  0
   -2.5125   -3.7612    1.2140 C   0  0  0  0  0  0  0  0  0  0  0  0
   -2.2446   -2.4094    1.4824 C   0  0  0  0  0  0  0  0  0  0  0  0
   -1.2529   -1.7274    0.7731 C   0  0  0  0  0  0  0  0  0  0  0  0
   -0.4890   -2.4166   -0.1797 C   0  0  0  0  0  0  0  0  0  0  0  0
   -0.9612   -0.2810    1.0687 C   0  0  0  0  0  0  0  0  0  0  0  0
   -2.4971    0.7161    0.9606 S   0  0  0  0  0  0  0  0  0  0  0  0
   -1.9884    1.8930   -0.3559 C   0  0  0  0  0  0  0  0  0  0  0  0
   -1.4580    3.2477    0.1597 C   0  0  2  0  0  0  0  0  0  0  0  0
   -0.1001    3.1310    0.7096 N   0  0  0  0  0  0  0  0  0  0  0  0
    0.5775    4.2464    1.2981 C   0  0  0  0  0  0  0  0  0  0  0  0
    0.6143    4.3328    2.5578 O   0  0  0  0  0  0  0  0  0  0  0  0
    1.4113    5.1974    0.4666 C   0  0  1  0  0  0  0  0  0  0  0  0
    0.7191    5.6039   -0.8387 C   0  0  0  0  0  0  0  0  0  0  0  0
    1.6919    6.4150    1.2398 N   0  0  0  0  0  0  0  0  0  0  0  0
    2.9601    7.1042    1.2562 C   0  0  0  0  0  0  0  0  0  0  0  0
    2.9646    8.3515    1.4429 O   0  0  0  0  0  0  0  0  0  0  0  0
    4.2837    6.4013    1.0436 C   0  0  1  0  0  0  0  0  0  0  0  0
    4.4798    5.2640    2.0706 C   0  0  0  0  0  0  0  0  0  0  0  0
    4.4071    5.9547   -0.3419 N   0  0  0  0  0  0  0  0  0  0  0  0
    5.4051    5.0083   -0.7535 C   0  0  0  0  0  0  0  0  0  0  0  0
    5.2383    3.7881   -0.4964 O   0  0  0  0  0  0  0  0  0  0  0  0
    6.6939    5.4633   -1.3983 C   0  0  1  0  0  0  0  0  0  0  0  0
    6.4411    6.4921   -2.4989 C   0  0  0  0  0  0  0  0  0  0  0  0
    7.5485    6.0416   -0.3577 N   0  0  0  0  0  0  0  0  0  0  0  0
    8.7369    5.4362    0.1781 C   0  0  0  0  0  0  0  0  0  0  0  0
    9.1793    5.8716    1.2818 O   0  0  0  0  0  0  0  0  0  0  0  0
    9.5072    4.3486   -0.5438 C   0  0  1  0  0  0  0  0  0  0  0  0
   10.1367    4.9073   -1.8260 C   0  0  0  0  0  0  0  0  0  0  0  0
   10.5756    3.8336    0.3142 N   0  0  0  0  0  0  0  0  0  0  0  0
   10.8424    2.4358    0.5248 C   0  0  0  0  0  0  0  0  0  0  0  0
   12.0460    2.0452    0.4808 O   0  0  0  0  0  0  0  0  0  0  0  0
    9.7679    1.4178    0.8376 C   0  0  1  0  0  0  0  0  0  0  0  0
    8.6054    2.0003    1.6539 C   0  0  0  0  0  0  0  0  0  0  0  0
    9.2821    0.7582   -0.3801 N   0  0  0  0  0  0  0  0  0  0  0  0
   10.1877    0.2005   -1.3437 C   0  0  0  0  0  0  0  0  0  0  0  0
   10.4668    0.8789   -2.3717 O   0  0  0  0  0  0  0  0  0  0  0  0
   10.7026   -1.2226   -1.2394 C   0  0  1  0  0  0  0  0  0  0  0  0
   12.1743   -1.2860   -1.6703 C   0  0  0  0  0  0  0  0  0  0  0  0
   10.5916   -1.7466    0.1305 N   0  0  0  0  0  0  0  0  0  0  0  0
   10.1253   -3.0647    0.4907 C   0  0  0  0  0  0  0  0  0  0  0  0
   10.3484   -3.4724    1.6667 O   0  0  0  0  0  0  0  0  0  0  0  0
    9.4263   -3.9928   -0.4805 C   0  0  1  0  0  0  0  0  0  0  0  0
   10.4581   -4.7222   -1.3575 C   0  0  0  0  0  0  0  0  0  0  0  0
    8.6250   -4.9921    0.2356 N   0  0  0  0  0  0  0  0  0  0  0  0
    7.1961   -4.8999    0.3051 C   0  0  0  0  0  0  0  0  0  0  0  0
    6.6609   -3.8228    0.6924 O   0  0  0  0  0  0  0  0  0  0  0  0
    6.3463   -6.1226    0.0341 C   0  0  1  0  0  0  0  0  0  0  0  0
    6.1502   -6.9417    1.3179 C   0  0  0  0  0  0  0  0  0  0  0  0
    5.0443   -5.7643   -0.5350 N   0  0  0  0  0  0  0  0  0  0  0  0
    4.1770   -6.7384   -1.1188 C   0  0  0  0  0  0  0  0  0  0  0  0
    4.6324   -7.5251   -1.9995 O   0  0  0  0  0  0  0  0  0  0  0  0
   -2.3821    3.8839    1.1764 C   0  0  0  0  0  0  0  0  0  0  0  0
   -2.4633    3.3871    2.3325 O   0  0  0  0  0  0  0  0  0  0  0  0
   -3.0580    5.1159    0.9101 N   0  0  0  0  0  0  0  0  0  0  0  0
   -4.1403    5.2480   -0.0803 C   0  0  2  0  0  0  0  0  0  0  0  0
   -3.6016    5.2068   -1.5109 C   0  0  0  0  0  0  0  0  0  0  0  0
   -4.8819    6.5463    0.1385 C   0  0  0  0  0  0  0  0  0  0  0  0
   -4.2172    7.6188    0.2467 O   0  0  0  0  0  0  0  0  0  0  0  0
   -6.3040    6.5934    0.3166 N   0  0  0  0  0  0  0  0  0  0  0  0
   -7.2387    5.8739   -0.5619 C   0  0  2  0  0  0  0  0  0  0  0  0
   -7.3292    6.5974   -1.9078 C   0  0  0  0  0  0  0  0  0  0  0  0
   -8.6046    5.8199    0.0812 C   0  0  0  0  0  0  0  0  0  0  0  0
   -9.1785    6.9045    0.3748 O   0  0  0  0  0  0  0  0  0  0  0  0
   -9.2456    4.5879    0.4642 N   0  0  0  0  0  0  0  0  0  0  0  0
   -9.3748    3.3515   -0.3343 C   0  0  2  0  0  0  0  0  0  0  0  0
   -9.1953    3.5864   -1.8462 C   0  0  0  0  0  0  0  0  0  0  0  0
  -10.7593    2.7831   -0.1032 C   0  0  0  0  0  0  0  0  0  0  0  0
  -11.7474    3.4619   -0.5074 O   0  0  0  0  0  0  0  0  0  0  0  0
  -11.0138    1.5116    0.5204 N   0  0  0  0  0  0  0  0  0  0  0  0
  -10.1685    0.8107    1.5009 C   0  0  2  0  0  0  0  0  0  0  0  0
   -9.7317    1.7505    2.6401 C   0  0  0  0  0  0  0  0  0  0  0  0
   -9.0147    0.0894    0.8410 C   0  0  0  0  0  0  0  0  0  0  0  0
   -7.8356    0.4787    1.0716 O   0  0  0  0  0  0  0  0  0  0  0  0
   -9.1989   -1.0036   -0.0818 N   0  0  0  0  0  0  0  0  0  0  0  0
  -10.1920   -2.0884   -0.0087 C   0  0  2  0  0  0  0  0  0  0  0  0
  -11.6104   -1.6021   -0.3262 C   0  0  0  0  0  0  0  0  0  0  0  0
  -10.1299   -2.8370    1.3122 C   0  0  0  0  0  0  0  0  0  0  0  0
  -10.5179   -2.2662    2.3667 O   0  0  0  0  0  0  0  0  0  0  0  0
   -9.6910   -4.2012    1.4120 N   0  0  0  0  0  0  0  0  0  0  0  0
   -8.8531   -4.8939    0.4233 C   0  0  2  0  0  0  0  0  0  0  0  0
   -9.7393   -5.7145   -0.5173 C   0  0  0  0  0  0  0  0  0  0  0  0
   -7.8724   -5.8223    1.1119 C   0  0  0  0  0  0  0  0  0  0  0  0
   -8.2290   -6.4306    2.1569 O   0  0  0  0  0  0  0  0  0  0  0  0
   -6.5642   -6.0887    0.5796 N   0  0  0  0  0  0  0  0  0  0  0  0
   -6.0438   -5.5546   -0.6849 C   0  0  2  0  0  0  0  0  0  0  0  0
   -5.2147   -6.6067   -1.3707 C   0  0  0  0  0  0  0  0  0  0  0  0
   -5.6004   -7.1105   -2.6520 N   0  0  0  0  0  0  0  0  0  0  0  0
   -4.1835   -7.0636   -0.8091 O   0  0  0  0  0  0  0  0  0  0  0  0
   -5.2391   -4.2392   -0.4859 C   0  0  0  0  0  0  0  0  0  0  0  0
   -5.2562   -3.5741    1.2317 S   0  0  0  0  0  0  0  0  0  0  0  0
   -3.7338   -4.4102    1.8143 C   0  0  0  0  0  0  0  0  0  0  0  0
    3.0373   -7.2577    2.4636 H   0  0  0  0  0  0  0  0  0  0  0  0
    2.1041   -8.5971    3.2345 H   0  0  0  0  0  0  0  0  0  0  0  0
    1.2681   -7.0512    2.8072 H   0  0  0  0  0  0  0  0  0  0  0  0
    2.8115   -9.0097   -0.5090 H   0  0  0  0  0  0  0  0  0  0  0  0
    2.1229   -6.9553   -1.6399 H   0  0  0  0  0  0  0  0  0  0  0  0
    1.2205   -5.8784    0.5493 H   0  0  0  0  0  0  0  0  0  0  0  0
    2.8964   -5.3636    0.8753 H   0  0  0  0  0  0  0  0  0  0  0  0
   -0.0589   -4.1088   -2.4067 H   0  0  0  0  0  0  0  0  0  0  0  0
   -0.0644   -5.6023   -1.4294 H   0  0  0  0  0  0  0  0  0  0  0  0
   -1.8858   -5.5043    0.1208 H   0  0  0  0  0  0  0  0  0  0  0  0
   -2.8536   -1.8719    2.2069 H   0  0  0  0  0  0  0  0  0  0  0  0
    0.2755   -1.8918   -0.7417 H   0  0  0  0  0  0  0  0  0  0  0  0
   -0.5539   -0.1950    2.0983 H   0  0  0  0  0  0  0  0  0  0  0  0
   -0.1853    0.0924    0.3741 H   0  0  0  0  0  0  0  0  0  0  0  0
   -2.8993    2.0802   -0.9606 H   0  0  0  0  0  0  0  0  0  0  0  0
   -1.2504    1.4332   -1.0520 H   0  0  0  0  0  0  0  0  0  0  0  0
   -1.3948    3.9112   -0.7256 H   0  0  0  0  0  0  0  0  0  0  0  0
    0.3317    2.1926    0.8532 H   0  0  0  0  0  0  0  0  0  0  0  0
    2.3397    4.6670    0.1912 H   0  0  0  0  0  0  0  0  0  0  0  0
    0.6109    4.7197   -1.5116 H   0  0  0  0  0  0  0  0  0  0  0  0
   -0.2689    6.0660   -0.6351 H   0  0  0  0  0  0  0  0  0  0  0  0
    1.3378    6.3563   -1.3740 H   0  0  0  0  0  0  0  0  0  0  0  0
    0.8559    6.9703    1.5351 H   0  0  0  0  0  0  0  0  0  0  0  0
    5.0884    7.1390    1.2373 H   0  0  0  0  0  0  0  0  0  0  0  0
    4.3560    5.6488    3.1047 H   0  0  0  0  0  0  0  0  0  0  0  0
    5.5033    4.8462    1.9757 H   0  0  0  0  0  0  0  0  0  0  0  0
    3.7531    4.4471    1.9126 H   0  0  0  0  0  0  0  0  0  0  0  0
    4.0620    6.6069   -1.0774 H   0  0  0  0  0  0  0  0  0  0  0  0
    7.1652    4.5816   -1.8658 H   0  0  0  0  0  0  0  0  0  0  0  0
    7.4072    6.7471   -2.9889 H   0  0  0  0  0  0  0  0  0  0  0  0
    6.0189    7.4341   -2.0874 H   0  0  0  0  0  0  0  0  0  0  0  0
    5.7555    6.0791   -3.2722 H   0  0  0  0  0  0  0  0  0  0  0  0
    7.2056    6.9134    0.1116 H   0  0  0  0  0  0  0  0  0  0  0  0
    8.8218    3.5208   -0.8333 H   0  0  0  0  0  0  0  0  0  0  0  0
   10.7029    4.1048   -2.3423 H   0  0  0  0  0  0  0  0  0  0  0  0
   10.8285    5.7433   -1.5843 H   0  0  0  0  0  0  0  0  0  0  0  0
    9.3543    5.2798   -2.5195 H   0  0  0  0  0  0  0  0  0  0  0  0
   11.3425    4.4953    0.5739 H   0  0  0  0  0  0  0  0  0  0  0  0
   10.2273    0.6504    1.4935 H   0  0  0  0  0  0  0  0  0  0  0  0
    8.9929    2.6144    2.4920 H   0  0  0  0  0  0  0  0  0  0  0  0
    8.0063    1.1701    2.0783 H   0  0  0  0  0  0  0  0  0  0  0  0
    7.9332    2.6244    1.0336 H   0  0  0  0  0  0  0  0  0  0  0  0
    8.2871    0.8813   -0.6725 H   0  0  0  0  0  0  0  0  0  0  0  0
   10.1100   -1.8370   -1.9436 H   0  0  0  0  0  0  0  0  0  0  0  0
   12.5863   -2.3002   -1.4861 H   0  0  0  0  0  0  0  0  0  0  0  0
   12.2703   -1.0629   -2.7531 H   0  0  0  0  0  0  0  0  0  0  0  0
   12.7772   -0.5526   -1.0944 H   0  0  0  0  0  0  0  0  0  0  0  0
   11.1294   -1.2355    0.8687 H   0  0  0  0  0  0  0  0  0  0  0  0
    8.7607   -3.4031   -1.1427 H   0  0  0  0  0  0  0  0  0  0  0  0
   11.2128   -5.2399   -0.7253 H   0  0  0  0  0  0  0  0  0  0  0  0
   10.9832   -4.0140   -2.0317 H   0  0  0  0  0  0  0  0  0  0  0  0
    9.9477   -5.4741   -1.9901 H   0  0  0  0  0  0  0  0  0  0  0  0
    9.0879   -5.8599    0.5927 H   0  0  0  0  0  0  0  0  0  0  0  0
    6.9037   -6.7518   -0.7068 H   0  0  0  0  0  0  0  0  0  0  0  0
    5.5784   -7.8684    1.0959 H   0  0  0  0  0  0  0  0  0  0  0  0
    5.5821   -6.3481    2.0726 H   0  0  0  0  0  0  0  0  0  0  0  0
    7.1313   -7.2305    1.7474 H   0  0  0  0  0  0  0  0  0  0  0  0
    4.7406   -4.7594   -0.5569 H   0  0  0  0  0  0  0  0  0  0  0  0
   -3.0265    5.8155    1.6943 H   0  0  0  0  0  0  0  0  0  0  0  0
   -4.8327    4.4001    0.0586 H   0  0  0  0  0  0  0  0  0  0  0  0
   -4.3783    5.5353   -2.2300 H   0  0  0  0  0  0  0  0  0  0  0  0
   -3.3511    4.1776   -1.7935 H   0  0  0  0  0  0  0  0  0  0  0  0
   -2.7057    5.8582   -1.6072 H   0  0  0  0  0  0  0  0  0  0  0  0
   -6.6843    7.4218    0.8338 H   0  0  0  0  0  0  0  0  0  0  0  0
   -6.8723    4.8450   -0.7163 H   0  0  0  0  0  0  0  0  0  0  0  0
   -8.0253    6.0851   -2.6014 H   0  0  0  0  0  0  0  0  0  0  0  0
   -6.3351    6.6422   -2.3918 H   0  0  0  0  0  0  0  0  0  0  0  0
   -7.6883    7.6380   -1.7617 H   0  0  0  0  0  0  0  0  0  0  0  0
   -9.8138    4.6389    1.3393 H   0  0  0  0  0  0  0  0  0  0  0  0
   -8.5953    2.6404   -0.0172 H   0  0  0  0  0  0  0  0  0  0  0  0
   -9.5942    2.7232   -2.4274 H   0  0  0  0  0  0  0  0  0  0  0  0
   -8.1208    3.6707   -2.1110 H   0  0  0  0  0  0  0  0  0  0  0  0
   -9.7450    4.5005   -2.1655 H   0  0  0  0  0  0  0  0  0  0  0  0
  -11.9991    1.1712    0.4424 H   0  0  0  0  0  0  0  0  0  0  0  0
  -10.7983    0.0589    2.0016 H   0  0  0  0  0  0  0  0  0  0  0  0
  -10.6243    2.2507    3.0814 H   0  0  0  0  0  0  0  0  0  0  0  0
   -9.2348    1.1596    3.4403 H   0  0  0  0  0  0  0  0  0  0  0  0
   -9.0193    2.5247    2.2908 H   0  0  0  0  0  0  0  0  0  0  0  0
   -8.4278   -1.1430   -0.7747 H   0  0  0  0  0  0  0  0  0  0  0  0
   -9.9520   -2.7951   -0.8289 H   0  0  0  0  0  0  0  0  0  0  0  0
  -11.5900   -0.8903   -1.1791 H   0  0  0  0  0  0  0  0  0  0  0  0
  -12.0893   -1.1212    0.5480 H   0  0  0  0  0  0  0  0  0  0  0  0
  -12.2459   -2.4657   -0.6138 H   0  0  0  0  0  0  0  0  0  0  0  0
  -10.0271   -4.7386    2.2450 H   0  0  0  0  0  0  0  0  0  0  0  0
   -8.2867   -4.1341   -0.1540 H   0  0  0  0  0  0  0  0  0  0  0  0
  -10.4418   -5.0554   -1.0745 H   0  0  0  0  0  0  0  0  0  0  0  0
  -10.3315   -6.4534    0.0647 H   0  0  0  0  0  0  0  0  0  0  0  0
   -9.1170   -6.2573   -1.2576 H   0  0  0  0  0  0  0  0  0  0  0  0
   -5.9162   -6.6532    1.1770 H   0  0  0  0  0  0  0  0  0  0  0  0
   -6.8903   -5.3317   -1.3622 H   0  0  0  0  0  0  0  0  0  0  0  0
   -6.4387   -6.7444   -3.1412 H   0  0  0  0  0  0  0  0  0  0  0  0
   -5.0794   -7.9144   -3.0748 H   0  0  0  0  0  0  0  0  0  0  0  0
   -4.1990   -4.3382   -0.8551 H   0  0  0  0  0  0  0  0  0  0  0  0
   -5.6986   -3.4557   -1.1273 H   0  0  0  0  0  0  0  0  0  0  0  0
   -3.7785   -5.4903    1.5606 H   0  0  0  0  0  0  0  0  0  0  0  0
   -3.6840   -4.3293    2.9196 H   0  0  0  0  0  0  0  0  0  0  0  0
  1  2  1  0
  2  3  2  0
  2  4  1  0
  4  5  1  0
  5  6  1  0
  6  7  1  0
  7  8  1  0
  8  9  1  0
  9 10  2  0
 10 11  1  0
 11 12  2  0
 12 13  1  0
 13 14  2  0
 13 15  1  0
 15 16  1  0
 16 17  1  0
 17 18  1  0
 18 19  1  0
 19 20  1  0
 20 21  2  0
 20 22  1  0
 22 23  1  0
 22 24  1  0
 24 25  1  0
 25 26  2  0
 25 27  1  0
 27 28  1  0
 27 29  1  0
 29 30  1  0
 30 31  2  0
 30 32  1  0
 32 33  1  0
 32 34  1  0
 34 35  1  0
 35 36  2  0
 35 37  1  0
 37 38  1  0
 37 39  1  0
 39 40  1  0
 40 41  2  0
 40 42  1  0
 42 43  1  0
 42 44  1  0
 44 45  1  0
 45 46  2  0
 45 47  1  0
 47 48  1  0
 47 49  1  0
 49 50  1  0
 50 51  2  0
 50 52  1  0
 52 53  1  0
 52 54  1  0
 54 55  1  0
 55 56  2  0
 55 57  1  0
 57 58  1  0
 57 59  1  0
 59 60  1  0
 60 61  2  0
 18 62  1  0
 62 63  2  0
 62 64  1  0
 64 65  1  0
 65 66  1  0
 65 67  1  0
 67 68  2  0
 67 69  1  0
 69 70  1  0
 70 71  1  0
 70 72  1  0
 72 73  2  0
 72 74  1  0
 74 75  1  0
 75 76  1  0
 75 77  1  0
 77 78  2  0
 77 79  1  0
 79 80  1  0
 80 81  1  0
 80 82  1  0
 82 83  2  0
 82 84  1  0
 84 85  1  0
 85 86  1  0
 85 87  1  0
 87 88  2  0
 87 89  1  0
 89 90  1  0
 90 91  1  0
 90 92  1  0
 92 93  2  0
 92 94  1  0
 94 95  1  0
 95 96  1  0
 96 97  1  0
 96 98  2  0
 95 99  1  0
 99100  1  0
100101  1  0
 60  5  1  0
 14  9  1  0
101 11  1  0
  1102  1  0
  1103  1  0
  1104  1  0
  4105  1  0
  5106  1  6
  6107  1  0
  6108  1  0
  8109  1  0
  8110  1  0
 10111  1  0
 12112  1  0
 14113  1  0
 15114  1  0
 15115  1  0
 17116  1  0
 17117  1  0
 18118  1  6
 19119  1  0
 22120  1  6
 23121  1  0
 23122  1  0
 23123  1  0
 24124  1  0
 27125  1  1
 28126  1  0
 28127  1  0
 28128  1  0
 29129  1  0
 32130  1  6
 33131  1  0
 33132  1  0
 33133  1  0
 34134  1  0
 37135  1  6
 38136  1  0
 38137  1  0
 38138  1  0
 39139  1  0
 42140  1  1
 43141  1  0
 43142  1  0
 43143  1  0
 44144  1  0
 47145  1  6
 48146  1  0
 48147  1  0
 48148  1  0
 49149  1  0
 52150  1  6
 53151  1  0
 53152  1  0
 53153  1  0
 54154  1  0
 57155  1  6
 58156  1  0
 58157  1  0
 58158  1  0
 59159  1  0
 64160  1  0
 65161  1  6
 66162  1  0
 66163  1  0
 66164  1  0
 69165  1  0
 70166  1  6
 71167  1  0
 71168  1  0
 71169  1  0
 74170  1  0
 75171  1  1
 76172  1  0
 76173  1  0
 76174  1  0
 79175  1  0
 80176  1  1
 81177  1  0
 81178  1  0
 81179  1  0
 84180  1  0
 85181  1  6
 86182  1  0
 86183  1  0
 86184  1  0
 89185  1  0
 90186  1  6
 91187  1  0
 91188  1  0
 91189  1  0
 94190  1  0
 95191  1  6
 97192  1  0
 97193  1  0
 99194  1  0
 99195  1  0
101196  1  0
101197  1  0
M  END
