
     RDKit          3D

187189  0  0  0  0  0  0  0  0999 V2000
   -3.5735    9.4302   -0.1361 C   0  0  0  0  0  0  0  0  0  0  0  0
   -2.5897    9.3998    0.9899 C   0  0  0  0  0  0  0  0  0  0  0  0
   -2.1780   10.4972    1.4573 O   0  0  0  0  0  0  0  0  0  0  0  0
   -2.1254    8.1786    1.5965 N   0  0  0  0  0  0  0  0  0  0  0  0
   -2.4243    6.8185    1.1506 C   0  0  2  0  0  0  0  0  0  0  0  0
   -1.6324    6.4466   -0.1178 C   0  0  0  0  0  0  0  0  0  0  0  0
    0.1315    6.1485    0.2535 S   0  0  0  0  0  0  0  0  0  0  0  0
   -0.0969    4.5437    1.1054 C   0  0  0  0  0  0  0  0  0  0  0  0
    0.9891    3.5853    0.7157 C   0  0  0  0  0  0  0  0  0  0  0  0
    2.3123    3.8395    1.1065 C   0  0  0  0  0  0  0  0  0  0  0  0
    3.3420    2.9446    0.7743 C   0  0  0  0  0  0  0  0  0  0  0  0
    3.0198    1.7493    0.1124 C   0  0  0  0  0  0  0  0  0  0  0  0
    1.7025    1.4750   -0.2705 C   0  0  0  0  0  0  0  0  0  0  0  0
    0.6929    2.4086    0.0139 C   0  0  0  0  0  0  0  0  0  0  0  0
    1.3688    0.1915   -0.9846 C   0  0  0  0  0  0  0  0  0  0  0  0
    0.1106   -0.7506   -0.0515 S   0  0  0  0  0  0  0  0  0  0  0  0
    1.2403   -1.4145    1.2329 C   0  0  0  0  0  0  0  0  0  0  0  0
    1.8786   -2.7560    0.8084 C   0  0  2  0  0  0  0  0  0  0  0  0
    0.9831   -3.8910    1.0797 N   0  0  0  0  0  0  0  0  0  0  0  0
   -0.3499   -3.9913    0.5470 C   0  0  0  0  0  0  0  0  0  0  0  0
   -1.2568   -3.2451    0.9873 O   0  0  0  0  0  0  0  0  0  0  0  0
   -0.6787   -4.9859   -0.5343 C   0  0  1  0  0  0  0  0  0  0  0  0
    0.1565   -4.7083   -1.7869 C   0  0  0  0  0  0  0  0  0  0  0  0
   -0.4261   -6.3507   -0.0615 N   0  0  0  0  0  0  0  0  0  0  0  0
   -1.3354   -7.4642   -0.1675 C   0  0  0  0  0  0  0  0  0  0  0  0
   -0.9016   -8.6187    0.1034 O   0  0  0  0  0  0  0  0  0  0  0  0
   -2.7790   -7.3071   -0.6131 C   0  0  1  0  0  0  0  0  0  0  0  0
   -2.8587   -7.2433   -2.1400 C   0  0  0  0  0  0  0  0  0  0  0  0
   -3.5949   -8.4357   -0.1490 N   0  0  0  0  0  0  0  0  0  0  0  0
   -4.9690   -8.3542    0.2797 C   0  0  0  0  0  0  0  0  0  0  0  0
   -5.5075   -9.3827    0.7758 O   0  0  0  0  0  0  0  0  0  0  0  0
   -5.7661   -7.0679    0.2253 C   0  0  1  0  0  0  0  0  0  0  0  0
   -7.2484   -7.3630   -0.0608 C   0  0  0  0  0  0  0  0  0  0  0  0
   -5.6152   -6.3293    1.4887 N   0  0  0  0  0  0  0  0  0  0  0  0
   -6.4321   -5.1973    1.8358 C   0  0  0  0  0  0  0  0  0  0  0  0
   -7.3892   -5.3681    2.6469 O   0  0  0  0  0  0  0  0  0  0  0  0
   -6.0984   -3.7886    1.3970 C   0  0  1  0  0  0  0  0  0  0  0  0
   -4.8611   -3.7059    0.5008 C   0  0  0  0  0  0  0  0  0  0  0  0
   -7.2510   -3.2050    0.6961 N   0  0  0  0  0  0  0  0  0  0  0  0
   -7.9370   -2.0249    1.1643 C   0  0  0  0  0  0  0  0  0  0  0  0
   -7.4537   -1.3518    2.1133 O   0  0  0  0  0  0  0  0  0  0  0  0
   -9.2583   -1.6180    0.5594 C   0  0  1  0  0  0  0  0  0  0  0  0
  -10.3947   -2.0527    1.4750 C   0  0  0  0  0  0  0  0  0  0  0  0
   -9.3168   -0.1623    0.3324 N   0  0  0  0  0  0  0  0  0  0  0  0
  -10.3748    0.4315   -0.4470 C   0  0  0  0  0  0  0  0  0  0  0  0
  -10.8911   -0.2211   -1.4036 O   0  0  0  0  0  0  0  0  0  0  0  0
  -10.8369    1.8525   -0.1997 C   0  0  1  0  0  0  0  0  0  0  0  0
  -10.6099    2.2810    1.2616 C   0  0  0  0  0  0  0  0  0  0  0  0
  -10.1677    2.7587   -1.1584 N   0  0  0  0  0  0  0  0  0  0  0  0
   -9.9707    4.1722   -0.9591 C   0  0  0  0  0  0  0  0  0  0  0  0
  -10.7258    4.8255   -0.1916 O   0  0  0  0  0  0  0  0  0  0  0  0
   -8.7874    4.8460   -1.6277 C   0  0  1  0  0  0  0  0  0  0  0  0
   -8.7303    6.3523   -1.3077 C   0  0  0  0  0  0  0  0  0  0  0  0
   -7.5627    4.1613   -1.1936 N   0  0  0  0  0  0  0  0  0  0  0  0
   -6.2692    4.7572   -1.2619 C   0  0  0  0  0  0  0  0  0  0  0  0
   -5.7806    5.0664   -2.3835 O   0  0  0  0  0  0  0  0  0  0  0  0
   -5.4722    4.9115   -0.0018 C   0  0  1  0  0  0  0  0  0  0  0  0
   -4.7396    3.6038    0.3187 C   0  0  0  0  0  0  0  0  0  0  0  0
   -4.5220    6.0221   -0.0972 N   0  0  0  0  0  0  0  0  0  0  0  0
   -3.9049    6.5555    1.0810 C   0  0  0  0  0  0  0  0  0  0  0  0
   -4.6081    6.7364    2.1094 O   0  0  0  0  0  0  0  0  0  0  0  0
    3.1977   -2.9634    1.5380 C   0  0  0  0  0  0  0  0  0  0  0  0
    3.3256   -2.5158    2.7132 O   0  0  0  0  0  0  0  0  0  0  0  0
    4.2881   -3.7215    0.9691 N   0  0  0  0  0  0  0  0  0  0  0  0
    4.1648   -4.5916   -0.2043 C   0  0  2  0  0  0  0  0  0  0  0  0
    5.1116   -5.7891   -0.0776 C   0  0  0  0  0  0  0  0  0  0  0  0
    4.3851   -3.8427   -1.5028 C   0  0  0  0  0  0  0  0  0  0  0  0
    3.4048   -3.6516   -2.2749 O   0  0  0  0  0  0  0  0  0  0  0  0
    5.6878   -3.4271   -1.9438 N   0  0  0  0  0  0  0  0  0  0  0  0
    6.6672   -2.7138   -1.1131 C   0  0  2  0  0  0  0  0  0  0  0  0
    6.7625   -1.2651   -1.5970 C   0  0  0  0  0  0  0  0  0  0  0  0
    8.0127   -3.4072   -1.1884 C   0  0  0  0  0  0  0  0  0  0  0  0
    8.0762   -4.5983   -1.6094 O   0  0  0  0  0  0  0  0  0  0  0  0
    9.2392   -2.7220   -0.8975 N   0  0  0  0  0  0  0  0  0  0  0  0
    9.6590   -2.2234    0.4208 C   0  0  2  0  0  0  0  0  0  0  0  0
   10.7051   -3.1688    1.0294 C   0  0  0  0  0  0  0  0  0  0  0  0
    8.5055   -2.0265    1.3875 C   0  0  0  0  0  0  0  0  0  0  0  0
    7.9353   -3.0433    1.8668 O   0  0  0  0  0  0  0  0  0  0  0  0
    8.0335   -0.7237    1.7788 N   0  0  0  0  0  0  0  0  0  0  0  0
    8.8357    0.5066    1.6990 C   0  0  2  0  0  0  0  0  0  0  0  0
   10.0206    0.4137    2.6721 C   0  0  0  0  0  0  0  0  0  0  0  0
    8.0082    1.7290    2.0350 C   0  0  0  0  0  0  0  0  0  0  0  0
    7.1460    1.6545    2.9714 O   0  0  0  0  0  0  0  0  0  0  0  0
    8.2578    3.0169    1.4390 N   0  0  0  0  0  0  0  0  0  0  0  0
    8.9397    3.2337    0.1528 C   0  0  2  0  0  0  0  0  0  0  0  0
   10.4639    3.2308    0.3385 C   0  0  0  0  0  0  0  0  0  0  0  0
    8.5047    4.5475   -0.4441 C   0  0  0  0  0  0  0  0  0  0  0  0
    8.8956    5.6268    0.0827 O   0  0  0  0  0  0  0  0  0  0  0  0
    7.6508    4.6071   -1.5987 N   0  0  0  0  0  0  0  0  0  0  0  0
    6.4832    3.7298   -1.7715 C   0  0  2  0  0  0  0  0  0  0  0  0
    6.4078    3.2880   -3.2114 C   0  0  0  0  0  0  0  0  0  0  0  0
    7.4160    2.4214   -3.7422 N   0  0  0  0  0  0  0  0  0  0  0  0
    5.4885    3.7020   -3.9749 O   0  0  0  0  0  0  0  0  0  0  0  0
    5.2045    4.4624   -1.3278 C   0  0  0  0  0  0  0  0  0  0  0  0
    5.2624    4.9007    0.4658 S   0  0  0  0  0  0  0  0  0  0  0  0
    4.7648    3.2700    1.1340 C   0  0  0  0  0  0  0  0  0  0  0  0
   -3.1780    8.9121   -1.0274 H   0  0  0  0  0  0  0  0  0  0  0  0
   -3.7921   10.4815   -0.4277 H   0  0  0  0  0  0  0  0  0  0  0  0
   -4.5320    8.9607    0.1687 H   0  0  0  0  0  0  0  0  0  0  0  0
   -1.5039    8.2682    2.4404 H   0  0  0  0  0  0  0  0  0  0  0  0
   -2.0717    6.1247    1.9534 H   0  0  0  0  0  0  0  0  0  0  0  0
   -2.0201    5.5233   -0.5958 H   0  0  0  0  0  0  0  0  0  0  0  0
   -1.6781    7.2516   -0.8683 H   0  0  0  0  0  0  0  0  0  0  0  0
   -1.0925    4.0982    0.8830 H   0  0  0  0  0  0  0  0  0  0  0  0
   -0.0576    4.7197    2.2036 H   0  0  0  0  0  0  0  0  0  0  0  0
    2.5375    4.7441    1.6632 H   0  0  0  0  0  0  0  0  0  0  0  0
    3.7989    1.0409   -0.1107 H   0  0  0  0  0  0  0  0  0  0  0  0
   -0.3281    2.2037   -0.2980 H   0  0  0  0  0  0  0  0  0  0  0  0
    2.2661   -0.4440   -1.1305 H   0  0  0  0  0  0  0  0  0  0  0  0
    0.9558    0.4248   -1.9905 H   0  0  0  0  0  0  0  0  0  0  0  0
    2.0286   -0.6627    1.4313 H   0  0  0  0  0  0  0  0  0  0  0  0
    0.6793   -1.5414    2.1796 H   0  0  0  0  0  0  0  0  0  0  0  0
    2.0742   -2.7277   -0.2815 H   0  0  0  0  0  0  0  0  0  0  0  0
    1.3202   -4.6829    1.6849 H   0  0  0  0  0  0  0  0  0  0  0  0
   -1.7405   -4.8450   -0.8153 H   0  0  0  0  0  0  0  0  0  0  0  0
   -0.1674   -5.3708   -2.6133 H   0  0  0  0  0  0  0  0  0  0  0  0
    0.0299   -3.6586   -2.1209 H   0  0  0  0  0  0  0  0  0  0  0  0
    1.2256   -4.8967   -1.5877 H   0  0  0  0  0  0  0  0  0  0  0  0
    0.5458   -6.5657    0.2619 H   0  0  0  0  0  0  0  0  0  0  0  0
   -3.1784   -6.3680   -0.1758 H   0  0  0  0  0  0  0  0  0  0  0  0
   -2.4203   -6.2995   -2.5153 H   0  0  0  0  0  0  0  0  0  0  0  0
   -2.3258   -8.1037   -2.6051 H   0  0  0  0  0  0  0  0  0  0  0  0
   -3.9229   -7.2721   -2.4656 H   0  0  0  0  0  0  0  0  0  0  0  0
   -3.1933   -9.3968   -0.2263 H   0  0  0  0  0  0  0  0  0  0  0  0
   -5.4052   -6.4400   -0.6190 H   0  0  0  0  0  0  0  0  0  0  0  0
   -7.3344   -7.9780   -0.9859 H   0  0  0  0  0  0  0  0  0  0  0  0
   -7.8193   -6.4165   -0.2190 H   0  0  0  0  0  0  0  0  0  0  0  0
   -7.7067   -7.9237    0.7816 H   0  0  0  0  0  0  0  0  0  0  0  0
   -5.1317   -6.8019    2.2863 H   0  0  0  0  0  0  0  0  0  0  0  0
   -5.8737   -3.2192    2.3188 H   0  0  0  0  0  0  0  0  0  0  0  0
   -3.9913   -4.2096    0.9729 H   0  0  0  0  0  0  0  0  0  0  0  0
   -4.5987   -2.6321    0.3341 H   0  0  0  0  0  0  0  0  0  0  0  0
   -5.0576   -4.1651   -0.4933 H   0  0  0  0  0  0  0  0  0  0  0  0
   -7.5731   -3.6633   -0.1901 H   0  0  0  0  0  0  0  0  0  0  0  0
   -9.3663   -2.1433   -0.4167 H   0  0  0  0  0  0  0  0  0  0  0  0
  -11.3681   -1.8216    1.0015 H   0  0  0  0  0  0  0  0  0  0  0  0
  -10.3342   -1.5117    2.4472 H   0  0  0  0  0  0  0  0  0  0  0  0
  -10.3439   -3.1491    1.6587 H   0  0  0  0  0  0  0  0  0  0  0  0
   -8.7045    0.4680    0.8955 H   0  0  0  0  0  0  0  0  0  0  0  0
  -11.9301    1.8993   -0.3894 H   0  0  0  0  0  0  0  0  0  0  0  0
   -9.5613    2.6022    1.4281 H   0  0  0  0  0  0  0  0  0  0  0  0
  -10.8536    1.4415    1.9532 H   0  0  0  0  0  0  0  0  0  0  0  0
  -11.2836    3.1284    1.5246 H   0  0  0  0  0  0  0  0  0  0  0  0
   -9.7731    2.3508   -2.0498 H   0  0  0  0  0  0  0  0  0  0  0  0
   -8.8978    4.7232   -2.7223 H   0  0  0  0  0  0  0  0  0  0  0  0
   -9.6804    6.8461   -1.5937 H   0  0  0  0  0  0  0  0  0  0  0  0
   -8.5516    6.5036   -0.2194 H   0  0  0  0  0  0  0  0  0  0  0  0
   -7.9136    6.8364   -1.8779 H   0  0  0  0  0  0  0  0  0  0  0  0
   -7.5680    3.1191   -1.1041 H   0  0  0  0  0  0  0  0  0  0  0  0
   -6.1888    5.1253    0.8209 H   0  0  0  0  0  0  0  0  0  0  0  0
   -5.4795    2.7851    0.4619 H   0  0  0  0  0  0  0  0  0  0  0  0
   -4.0501    3.3369   -0.4998 H   0  0  0  0  0  0  0  0  0  0  0  0
   -4.1585    3.7084    1.2603 H   0  0  0  0  0  0  0  0  0  0  0  0
   -4.1077    6.2635   -1.0260 H   0  0  0  0  0  0  0  0  0  0  0  0
    5.1507   -3.7962    1.5524 H   0  0  0  0  0  0  0  0  0  0  0  0
    3.1418   -5.0170   -0.2096 H   0  0  0  0  0  0  0  0  0  0  0  0
    4.8824   -6.3478    0.8479 H   0  0  0  0  0  0  0  0  0  0  0  0
    6.1646   -5.4500   -0.0121 H   0  0  0  0  0  0  0  0  0  0  0  0
    4.9975   -6.4583   -0.9497 H   0  0  0  0  0  0  0  0  0  0  0  0
    5.8401   -3.3912   -2.9735 H   0  0  0  0  0  0  0  0  0  0  0  0
    6.3442   -2.6999   -0.0653 H   0  0  0  0  0  0  0  0  0  0  0  0
    5.7592   -0.7927   -1.5539 H   0  0  0  0  0  0  0  0  0  0  0  0
    7.1261   -1.2379   -2.6485 H   0  0  0  0  0  0  0  0  0  0  0  0
    7.4470   -0.6731   -0.9638 H   0  0  0  0  0  0  0  0  0  0  0  0
   10.0025   -2.8376   -1.6077 H   0  0  0  0  0  0  0  0  0  0  0  0
   10.1847   -1.2710    0.2440 H   0  0  0  0  0  0  0  0  0  0  0  0
   11.0531   -2.7937    2.0046 H   0  0  0  0  0  0  0  0  0  0  0  0
   10.2675   -4.1802    1.1586 H   0  0  0  0  0  0  0  0  0  0  0  0
   11.5825   -3.2415    0.3445 H   0  0  0  0  0  0  0  0  0  0  0  0
    7.0705   -0.6842    2.1868 H   0  0  0  0  0  0  0  0  0  0  0  0
    9.2056    0.6141    0.6620 H   0  0  0  0  0  0  0  0  0  0  0  0
   10.6126    1.3523    2.6626 H   0  0  0  0  0  0  0  0  0  0  0  0
    9.6497    0.2483    3.7057 H   0  0  0  0  0  0  0  0  0  0  0  0
   10.6884   -0.4184    2.4024 H   0  0  0  0  0  0  0  0  0  0  0  0
    7.8134    3.8387    1.9153 H   0  0  0  0  0  0  0  0  0  0  0  0
    8.6716    2.4178   -0.5562 H   0  0  0  0  0  0  0  0  0  0  0  0
   10.9592    3.6372   -0.5617 H   0  0  0  0  0  0  0  0  0  0  0  0
   10.8519    2.2066    0.4877 H   0  0  0  0  0  0  0  0  0  0  0  0
   10.7409    3.8602    1.2138 H   0  0  0  0  0  0  0  0  0  0  0  0
    7.6903    5.4774   -2.1766 H   0  0  0  0  0  0  0  0  0  0  0  0
    6.5810    2.8113   -1.1585 H   0  0  0  0  0  0  0  0  0  0  0  0
    8.1651    2.0407   -3.1285 H   0  0  0  0  0  0  0  0  0  0  0  0
    7.4167    2.1652   -4.7503 H   0  0  0  0  0  0  0  0  0  0  0  0
    5.1022    5.4254   -1.8808 H   0  0  0  0  0  0  0  0  0  0  0  0
    4.3038    3.8475   -1.5499 H   0  0  0  0  0  0  0  0  0  0  0  0
    5.4499    2.4785    0.7714 H   0  0  0  0  0  0  0  0  0  0  0  0
    4.8452    3.3075    2.2466 H   0  0  0  0  0  0  0  0  0  0  0  0
  1  2  1  0
  2  3  2  0
  2  4  1  0
  4  5  1  0
  5  6  1  0
  6  7  1  0
  7  8  1  0
  8  9  1  0
  9 10  2  0
 10 11  1  0
 11 12  2  0
 12 13  1  0
 13 14  2  0
 13 15  1  0
 15 16  1  0
 16 17  1  0
 17 18  1  0
 18 19  1  0
 19 20  1  0
 20 21  2  0
 20 22  1  0
 22 23  1  0
 22 24  1  0
 24 25  1  0
 25 26  2  0
 25 27  1  0
 27 28  1  0
 27 29  1  0
 29 30  1  0
 30 31  2  0
 30 32  1  0
 32 33  1  0
 32 34  1  0
 34 35  1  0
 35 36  2  0
 35 37  1  0
 37 38  1  0
 37 39  1  0
 39 40  1  0
 40 41  2  0
 40 42  1  0
 42 43  1  0
 42 44  1  0
 44 45  1  0
 45 46  2  0
 45 47  1  0
 47 48  1  0
 47 49  1  0
 49 50  1  0
 50 51  2  0
 50 52  1  0
 52 53  1  0
 52 54  1  0
 54 55  1  0
 55 56  2  0
 55 57  1  0
 57 58  1  0
 57 59  1  0
 59 60  1  0
 60 61  2  0
 18 62  1  0
 62 63  2  0
 62 64  1  0
 64 65  1  0
 65 66  1  0
 65 67  1  0
 67 68  2  0
 67 69  1  0
 69 70  1  0
 70 71  1  0
 70 72  1  0
 72 73  2  0
 72 74  1  0
 74 75  1  0
 75 76  1  0
 75 77  1  0
 77 78  2  0
 77 79  1  0
 79 80  1  0
 80 81  1  0
 80 82  1  0
 82 83  2  0
 82 84  1  0
 84 85  1  0
 85 86  1  0
 85 87  1  0
 87 88  2  0
 87 89  1  0
 89 90  1  0
 90 91  1  0
 91 92  1  0
 91 93  2  0
 90 94  1  0
 94 95  1  0
 95 96  1  0
 60  5  1  0
 14  9  1  0
 96 11  1  0
  1 97  1  0
  1 98  1  0
  1 99  1  0
  4100  1  0
  5101  1  1
  6102  1  0
  6103  1  0
  8104  1  0
  8105  1  0
 10106  1  0
 12107  1  0
 14108  1  0
 15109  1  0
 15110  1  0
 17111  1  0
 17112  1  0
 18113  1  6
 19114  1  0
 22115  1  6
 23116  1  0
 23117  1  0
 23118  1  0
 24119  1  0
 27120  1  1
 28121  1  0
 28122  1  0
 28123  1  0
 29124  1  0
 32125  1  6
 33126  1  0
 33127  1  0
 33128  1  0
 34129  1  0
 37130  1  1
 38131  1  0
 38132  1  0
 38133  1  0
 39134  1  0
 42135  1  6
 43136  1  0
 43137  1  0
 43138  1  0
 44139  1  0
 47140  1  6
 48141  1  0
 48142  1  0
 48143  1  0
 49144  1  0
 52145  1  6
 53146  1  0
 53147  1  0
 53148  1  0
 54149  1  0
 57150  1  1
 58151  1  0
 58152  1  0
 58153  1  0
 59154  1  0
 64155  1  0
 65156  1  6
 66157  1  0
 66158  1  0
 66159  1  0
 69160  1  0
 70161  1  1
 71162  1  0
 71163  1  0
 71164  1  0
 74165  1  0
 75166  1  6
 76167  1  0
 76168  1  0
 76169  1  0
 79170  1  0
 80171  1  6
 81172  1  0
 81173  1  0
 81174  1  0
 84175  1  0
 85176  1  6
 86177  1  0
 86178  1  0
 86179  1  0
 89180  1  0
 90181  1  1
 92182  1  0
 92183  1  0
 94184  1  0
 94185  1  0
 96186  1  0
 96187  1  0
M  END
