
     RDKit          3D

197199  0  0  0  0  0  0  0  0999 V2000
    4.3336  -10.1754    0.2383 C   0  0  0  0  0  0  0  0  0  0  0  0
    3.4612   -8.9696    0.3633 C   0  0  0  0  0  0  0  0  0  0  0  0
    2.2437   -9.0681    0.0316 O   0  0  0  0  0  0  0  0  0  0  0  0
    4.0270   -7.6923    0.6801 N   0  0  0  0  0  0  0  0  0  0  0  0
    3.2400   -6.4651    0.7011 C   0  0  2  0  0  0  0  0  0  0  0  0
    2.8462   -6.0799   -0.7629 C   0  0  0  0  0  0  0  0  0  0  0  0
    2.1285   -4.4019   -0.9791 S   0  0  0  0  0  0  0  0  0  0  0  0
    0.6947   -4.6382    0.1448 C   0  0  0  0  0  0  0  0  0  0  0  0
   -0.3597   -3.5776   -0.0932 C   0  0  0  0  0  0  0  0  0  0  0  0
   -1.6734   -3.9642   -0.4185 C   0  0  0  0  0  0  0  0  0  0  0  0
   -2.7276   -3.0421   -0.2662 C   0  0  0  0  0  0  0  0  0  0  0  0
   -2.4344   -1.7221    0.1475 C   0  0  0  0  0  0  0  0  0  0  0  0
   -1.1137   -1.3275    0.4276 C   0  0  0  0  0  0  0  0  0  0  0  0
   -0.0853   -2.2518    0.2612 C   0  0  0  0  0  0  0  0  0  0  0  0
   -0.8969   -0.2139    1.4476 C   0  0  0  0  0  0  0  0  0  0  0  0
    0.3243    1.0628    0.9364 S   0  0  0  0  0  0  0  0  0  0  0  0
   -0.8038    2.3096    0.1801 C   0  0  0  0  0  0  0  0  0  0  0  0
   -1.4510    3.3271    1.1537 C   0  0  2  0  0  0  0  0  0  0  0  0
   -0.5170    4.3131    1.7441 N   0  0  0  0  0  0  0  0  0  0  0  0
    0.8798    4.4247    1.4654 C   0  0  0  0  0  0  0  0  0  0  0  0
    1.6742    3.5673    1.9375 O   0  0  0  0  0  0  0  0  0  0  0  0
    1.4486    5.6459    0.7937 C   0  0  1  0  0  0  0  0  0  0  0  0
    0.4787    6.2265   -0.2348 C   0  0  0  0  0  0  0  0  0  0  0  0
    1.7481    6.6651    1.8104 N   0  0  0  0  0  0  0  0  0  0  0  0
    2.9931    7.3767    1.9194 C   0  0  0  0  0  0  0  0  0  0  0  0
    3.2878    7.9044    3.0294 O   0  0  0  0  0  0  0  0  0  0  0  0
    3.9150    7.5748    0.7393 C   0  0  1  0  0  0  0  0  0  0  0  0
    4.2169    9.0777    0.5674 C   0  0  0  0  0  0  0  0  0  0  0  0
    5.1507    6.7959    0.9235 N   0  0  0  0  0  0  0  0  0  0  0  0
    6.3320    7.0396    0.1581 C   0  0  0  0  0  0  0  0  0  0  0  0
    7.1035    7.9896    0.5038 O   0  0  0  0  0  0  0  0  0  0  0  0
    6.6154    6.2116   -1.0548 C   0  0  1  0  0  0  0  0  0  0  0  0
    5.8363    6.7180   -2.2639 C   0  0  0  0  0  0  0  0  0  0  0  0
    8.0521    6.2596   -1.3884 N   0  0  0  0  0  0  0  0  0  0  0  0
    9.0081    5.2288   -1.0826 C   0  0  0  0  0  0  0  0  0  0  0  0
   10.0005    5.1064   -1.8563 O   0  0  0  0  0  0  0  0  0  0  0  0
    8.9465    4.4038    0.1816 C   0  0  1  0  0  0  0  0  0  0  0  0
    7.9916    3.1898    0.1303 C   0  0  0  0  0  0  0  0  0  0  0  0
   10.2869    4.0320    0.6376 N   0  0  0  0  0  0  0  0  0  0  0  0
   11.1975    3.0123    0.1596 C   0  0  0  0  0  0  0  0  0  0  0  0
   12.3703    3.0330    0.6556 O   0  0  0  0  0  0  0  0  0  0  0  0
   10.8222    1.8374   -0.7250 C   0  0  1  0  0  0  0  0  0  0  0  0
   10.6562    2.2410   -2.1825 C   0  0  0  0  0  0  0  0  0  0  0  0
   11.8811    0.8268   -0.6635 N   0  0  0  0  0  0  0  0  0  0  0  0
   11.7084   -0.4554   -0.0474 C   0  0  0  0  0  0  0  0  0  0  0  0
   12.5591   -0.8397    0.8023 O   0  0  0  0  0  0  0  0  0  0  0  0
   10.6123   -1.3869   -0.4884 C   0  0  1  0  0  0  0  0  0  0  0  0
   11.1693   -2.4220   -1.4601 C   0  0  0  0  0  0  0  0  0  0  0  0
    9.9865   -2.0072    0.6909 N   0  0  0  0  0  0  0  0  0  0  0  0
   10.4748   -3.2183    1.2813 C   0  0  0  0  0  0  0  0  0  0  0  0
   11.4984   -3.1713    2.0216 O   0  0  0  0  0  0  0  0  0  0  0  0
    9.8249   -4.5520    0.9812 C   0  0  1  0  0  0  0  0  0  0  0  0
    9.4369   -5.3082    2.2827 C   0  0  0  0  0  0  0  0  0  0  0  0
    8.6644   -4.4058    0.0741 N   0  0  0  0  0  0  0  0  0  0  0  0
    7.3439   -4.0398    0.4993 C   0  0  0  0  0  0  0  0  0  0  0  0
    7.1655   -3.0098    1.2238 O   0  0  0  0  0  0  0  0  0  0  0  0
    6.1547   -4.8961    0.1462 C   0  0  1  0  0  0  0  0  0  0  0  0
    6.5710   -6.1542   -0.6296 C   0  0  0  0  0  0  0  0  0  0  0  0
    5.4198   -5.2419    1.3681 N   0  0  0  0  0  0  0  0  0  0  0  0
    3.9974   -5.3843    1.4483 C   0  0  0  0  0  0  0  0  0  0  0  0
    3.3519   -4.5470    2.1225 O   0  0  0  0  0  0  0  0  0  0  0  0
   -2.1908    2.6257    2.2687 C   0  0  0  0  0  0  0  0  0  0  0  0
   -1.6349    2.4772    3.3810 O   0  0  0  0  0  0  0  0  0  0  0  0
   -3.5127    2.0769    2.0943 N   0  0  0  0  0  0  0  0  0  0  0  0
   -4.6076    2.6350    1.2688 C   0  0  2  0  0  0  0  0  0  0  0  0
   -4.3595    2.3752   -0.2224 C   0  0  0  0  0  0  0  0  0  0  0  0
   -4.8594    4.0849    1.5881 C   0  0  0  0  0  0  0  0  0  0  0  0
   -4.0894    4.6908    2.3929 O   0  0  0  0  0  0  0  0  0  0  0  0
   -5.9882    4.7960    1.0586 N   0  0  0  0  0  0  0  0  0  0  0  0
   -7.3633    4.2885    1.0153 C   0  0  2  0  0  0  0  0  0  0  0  0
   -7.7280    3.4253    2.2584 C   0  0  0  0  0  0  0  0  0  0  0  0
   -7.6318    3.6740   -0.3261 C   0  0  0  0  0  0  0  0  0  0  0  0
   -7.4090    4.3509   -1.3666 O   0  0  0  0  0  0  0  0  0  0  0  0
   -8.1867    2.3629   -0.4471 N   0  0  0  0  0  0  0  0  0  0  0  0
   -9.5528    2.1468   -0.9027 C   0  0  2  0  0  0  0  0  0  0  0  0
   -9.6867    2.3395   -2.4244 C   0  0  0  0  0  0  0  0  0  0  0  0
  -10.5149    2.9903   -0.1160 C   0  0  0  0  0  0  0  0  0  0  0  0
  -10.9246    4.0865   -0.6011 O   0  0  0  0  0  0  0  0  0  0  0  0
  -10.8016    2.7118    1.2639 N   0  0  0  0  0  0  0  0  0  0  0  0
  -11.4229    1.4705    1.7881 C   0  0  2  0  0  0  0  0  0  0  0  0
  -12.2996    1.8400    2.9978 C   0  0  0  0  0  0  0  0  0  0  0  0
  -10.4099    0.4040    2.2449 C   0  0  0  0  0  0  0  0  0  0  0  0
  -10.0138    0.4740    3.4503 O   0  0  0  0  0  0  0  0  0  0  0  0
   -9.8278   -0.5914    1.3993 N   0  0  0  0  0  0  0  0  0  0  0  0
  -10.5138   -1.1370    0.2279 C   0  0  2  0  0  0  0  0  0  0  0  0
  -11.2581   -2.4088    0.6336 C   0  0  0  0  0  0  0  0  0  0  0  0
   -9.5096   -1.4172   -0.8591 C   0  0  0  0  0  0  0  0  0  0  0  0
   -8.3236   -1.0139   -0.7840 O   0  0  0  0  0  0  0  0  0  0  0  0
   -9.9417   -1.9889   -2.0955 N   0  0  0  0  0  0  0  0  0  0  0  0
   -9.1132   -2.9719   -2.8035 C   0  0  2  0  0  0  0  0  0  0  0  0
   -9.8735   -3.5296   -3.9972 C   0  0  0  0  0  0  0  0  0  0  0  0
   -8.7187   -4.1054   -1.8553 C   0  0  0  0  0  0  0  0  0  0  0  0
   -9.5724   -4.5550   -1.0633 O   0  0  0  0  0  0  0  0  0  0  0  0
   -7.3891   -4.6322   -1.7981 N   0  0  0  0  0  0  0  0  0  0  0  0
   -6.4536   -4.6308   -2.9344 C   0  0  2  0  0  0  0  0  0  0  0  0
   -5.9653   -6.0301   -3.1997 C   0  0  0  0  0  0  0  0  0  0  0  0
   -5.8818   -6.9822   -2.1446 N   0  0  0  0  0  0  0  0  0  0  0  0
   -5.5797   -6.3408   -4.3574 O   0  0  0  0  0  0  0  0  0  0  0  0
   -5.2430   -3.6705   -2.7660 C   0  0  0  0  0  0  0  0  0  0  0  0
   -5.2879   -2.5747   -1.2851 S   0  0  0  0  0  0  0  0  0  0  0  0
   -4.1597   -3.5504   -0.2197 C   0  0  0  0  0  0  0  0  0  0  0  0
    3.9043  -10.9799    0.8704 H   0  0  0  0  0  0  0  0  0  0  0  0
    5.3811   -9.9587    0.5503 H   0  0  0  0  0  0  0  0  0  0  0  0
    4.3420  -10.5165   -0.8144 H   0  0  0  0  0  0  0  0  0  0  0  0
    4.8997   -7.7551    1.2635 H   0  0  0  0  0  0  0  0  0  0  0  0
    2.3085   -6.6504    1.2588 H   0  0  0  0  0  0  0  0  0  0  0  0
    2.1147   -6.8367   -1.1474 H   0  0  0  0  0  0  0  0  0  0  0  0
    3.7336   -6.1408   -1.4375 H   0  0  0  0  0  0  0  0  0  0  0  0
    0.2613   -5.6676    0.0354 H   0  0  0  0  0  0  0  0  0  0  0  0
    1.0294   -4.5297    1.2059 H   0  0  0  0  0  0  0  0  0  0  0  0
   -1.8930   -4.9851   -0.6921 H   0  0  0  0  0  0  0  0  0  0  0  0
   -3.2562   -1.0638    0.3682 H   0  0  0  0  0  0  0  0  0  0  0  0
    0.9282   -1.9862    0.5471 H   0  0  0  0  0  0  0  0  0  0  0  0
   -1.8716    0.1896    1.7462 H   0  0  0  0  0  0  0  0  0  0  0  0
   -0.4875   -0.6775    2.3799 H   0  0  0  0  0  0  0  0  0  0  0  0
   -1.6017    1.7937   -0.3945 H   0  0  0  0  0  0  0  0  0  0  0  0
   -0.2147    2.9003   -0.5610 H   0  0  0  0  0  0  0  0  0  0  0  0
   -2.1798    3.9343    0.5729 H   0  0  0  0  0  0  0  0  0  0  0  0
   -0.9572    5.1243    2.2349 H   0  0  0  0  0  0  0  0  0  0  0  0
    2.3712    5.3332    0.2550 H   0  0  0  0  0  0  0  0  0  0  0  0
    0.9406    7.0846   -0.7568 H   0  0  0  0  0  0  0  0  0  0  0  0
   -0.4513    6.5863    0.2664 H   0  0  0  0  0  0  0  0  0  0  0  0
    0.2014    5.4475   -0.9861 H   0  0  0  0  0  0  0  0  0  0  0  0
    1.0342    6.8206    2.5625 H   0  0  0  0  0  0  0  0  0  0  0  0
    3.4218    7.2486   -0.1960 H   0  0  0  0  0  0  0  0  0  0  0  0
    4.8224    9.4521    1.4158 H   0  0  0  0  0  0  0  0  0  0  0  0
    4.7834    9.2342   -0.3689 H   0  0  0  0  0  0  0  0  0  0  0  0
    3.2691    9.6572    0.4954 H   0  0  0  0  0  0  0  0  0  0  0  0
    5.2730    6.2520    1.8134 H   0  0  0  0  0  0  0  0  0  0  0  0
    6.2964    5.1618   -0.8657 H   0  0  0  0  0  0  0  0  0  0  0  0
    6.0708    7.7914   -2.4547 H   0  0  0  0  0  0  0  0  0  0  0  0
    6.1181    6.1334   -3.1617 H   0  0  0  0  0  0  0  0  0  0  0  0
    4.7487    6.6017   -2.1100 H   0  0  0  0  0  0  0  0  0  0  0  0
    8.4646    7.2085   -1.5173 H   0  0  0  0  0  0  0  0  0  0  0  0
    8.5192    5.0755    0.9753 H   0  0  0  0  0  0  0  0  0  0  0  0
    7.9603    2.7407   -0.8803 H   0  0  0  0  0  0  0  0  0  0  0  0
    6.9610    3.4785    0.4074 H   0  0  0  0  0  0  0  0  0  0  0  0
    8.2934    2.4305    0.8851 H   0  0  0  0  0  0  0  0  0  0  0  0
   10.6663    4.6332    1.4089 H   0  0  0  0  0  0  0  0  0  0  0  0
    9.8734    1.3982   -0.3585 H   0  0  0  0  0  0  0  0  0  0  0  0
   11.4648    2.9478   -2.4911 H   0  0  0  0  0  0  0  0  0  0  0  0
    9.6733    2.7064   -2.3788 H   0  0  0  0  0  0  0  0  0  0  0  0
   10.7159    1.3468   -2.8442 H   0  0  0  0  0  0  0  0  0  0  0  0
   12.8534    1.1195   -0.9025 H   0  0  0  0  0  0  0  0  0  0  0  0
    9.8265   -0.8174   -1.0260 H   0  0  0  0  0  0  0  0  0  0  0  0
   10.3510   -3.0869   -1.8047 H   0  0  0  0  0  0  0  0  0  0  0  0
   11.5861   -1.9106   -2.3502 H   0  0  0  0  0  0  0  0  0  0  0  0
   11.9728   -3.0326   -0.9969 H   0  0  0  0  0  0  0  0  0  0  0  0
    9.3415   -1.4325    1.2729 H   0  0  0  0  0  0  0  0  0  0  0  0
   10.5888   -5.1581    0.4667 H   0  0  0  0  0  0  0  0  0  0  0  0
    9.5196   -4.6709    3.1844 H   0  0  0  0  0  0  0  0  0  0  0  0
    8.3975   -5.7029    2.2236 H   0  0  0  0  0  0  0  0  0  0  0  0
   10.1068   -6.1847    2.4328 H   0  0  0  0  0  0  0  0  0  0  0  0
    8.7941   -4.8266   -0.8629 H   0  0  0  0  0  0  0  0  0  0  0  0
    5.5014   -4.3033   -0.5165 H   0  0  0  0  0  0  0  0  0  0  0  0
    5.7349   -6.8236   -0.8344 H   0  0  0  0  0  0  0  0  0  0  0  0
    6.9537   -5.8781   -1.6242 H   0  0  0  0  0  0  0  0  0  0  0  0
    7.3299   -6.7440   -0.0785 H   0  0  0  0  0  0  0  0  0  0  0  0
    5.9094   -5.1148    2.2871 H   0  0  0  0  0  0  0  0  0  0  0  0
   -3.7770    1.2649    2.6947 H   0  0  0  0  0  0  0  0  0  0  0  0
   -5.5221    2.0461    1.5294 H   0  0  0  0  0  0  0  0  0  0  0  0
   -3.8678    1.3878   -0.3765 H   0  0  0  0  0  0  0  0  0  0  0  0
   -3.7548    3.1733   -0.6937 H   0  0  0  0  0  0  0  0  0  0  0  0
   -5.3237    2.3225   -0.7846 H   0  0  0  0  0  0  0  0  0  0  0  0
   -5.9034    5.8309    1.0539 H   0  0  0  0  0  0  0  0  0  0  0  0
   -8.0248    5.1824    1.0386 H   0  0  0  0  0  0  0  0  0  0  0  0
   -6.9187    3.3679    3.0223 H   0  0  0  0  0  0  0  0  0  0  0  0
   -7.9864    2.3668    1.9869 H   0  0  0  0  0  0  0  0  0  0  0  0
   -8.5980    3.8923    2.7588 H   0  0  0  0  0  0  0  0  0  0  0  0
   -7.6261    1.5333   -0.1323 H   0  0  0  0  0  0  0  0  0  0  0  0
   -9.8115    1.1119   -0.7218 H   0  0  0  0  0  0  0  0  0  0  0  0
  -10.7055    2.0383   -2.7636 H   0  0  0  0  0  0  0  0  0  0  0  0
   -8.9672    1.6804   -2.9256 H   0  0  0  0  0  0  0  0  0  0  0  0
   -9.5144    3.3988   -2.7131 H   0  0  0  0  0  0  0  0  0  0  0  0
  -10.9506    3.5772    1.8333 H   0  0  0  0  0  0  0  0  0  0  0  0
  -12.1068    1.0784    1.0211 H   0  0  0  0  0  0  0  0  0  0  0  0
  -11.7469    2.4852    3.7189 H   0  0  0  0  0  0  0  0  0  0  0  0
  -13.2018    2.4016    2.6685 H   0  0  0  0  0  0  0  0  0  0  0  0
  -12.6071    0.9305    3.5564 H   0  0  0  0  0  0  0  0  0  0  0  0
   -9.0322   -1.1298    1.8010 H   0  0  0  0  0  0  0  0  0  0  0  0
  -11.2395   -0.4203   -0.1846 H   0  0  0  0  0  0  0  0  0  0  0  0
  -11.8494   -2.1891    1.5536 H   0  0  0  0  0  0  0  0  0  0  0  0
  -11.9894   -2.7156   -0.1497 H   0  0  0  0  0  0  0  0  0  0  0  0
  -10.5413   -3.2351    0.8523 H   0  0  0  0  0  0  0  0  0  0  0  0
  -10.9762   -1.9705   -2.2952 H   0  0  0  0  0  0  0  0  0  0  0  0
   -8.2224   -2.4361   -3.1986 H   0  0  0  0  0  0  0  0  0  0  0  0
  -10.1188   -2.6914   -4.6958 H   0  0  0  0  0  0  0  0  0  0  0  0
  -10.8128   -4.0060   -3.6665 H   0  0  0  0  0  0  0  0  0  0  0  0
   -9.2862   -4.2952   -4.5589 H   0  0  0  0  0  0  0  0  0  0  0  0
   -7.0625   -5.0737   -0.8943 H   0  0  0  0  0  0  0  0  0  0  0  0
   -7.0048   -4.3063   -3.8419 H   0  0  0  0  0  0  0  0  0  0  0  0
   -4.9520   -7.2519   -1.7699 H   0  0  0  0  0  0  0  0  0  0  0  0
   -6.7337   -7.4242   -1.7633 H   0  0  0  0  0  0  0  0  0  0  0  0
   -4.2682   -4.2178   -2.8051 H   0  0  0  0  0  0  0  0  0  0  0  0
   -5.2110   -2.9867   -3.6482 H   0  0  0  0  0  0  0  0  0  0  0  0
   -4.5218   -3.4581    0.8247 H   0  0  0  0  0  0  0  0  0  0  0  0
   -4.2314   -4.6280   -0.4813 H   0  0  0  0  0  0  0  0  0  0  0  0
  1  2  1  0
  2  3  2  0
  2  4  1  0
  4  5  1  0
  5  6  1  0
  6  7  1  0
  7  8  1  0
  8  9  1  0
  9 10  2  0
 10 11  1  0
 11 12  2  0
 12 13  1  0
 13 14  2  0
 13 15  1  0
 15 16  1  0
 16 17  1  0
 17 18  1  0
 18 19  1  0
 19 20  1  0
 20 21  2  0
 20 22  1  0
 22 23  1  0
 22 24  1  0
 24 25  1  0
 25 26  2  0
 25 27  1  0
 27 28  1  0
 27 29  1  0
 29 30  1  0
 30 31  2  0
 30 32  1  0
 32 33  1  0
 32 34  1  0
 34 35  1  0
 35 36  2  0
 35 37  1  0
 37 38  1  0
 37 39  1  0
 39 40  1  0
 40 41  2  0
 40 42  1  0
 42 43  1  0
 42 44  1  0
 44 45  1  0
 45 46  2  0
 45 47  1  0
 47 48  1  0
 47 49  1  0
 49 50  1  0
 50 51  2  0
 50 52  1  0
 52 53  1  0
 52 54  1  0
 54 55  1  0
 55 56  2  0
 55 57  1  0
 57 58  1  0
 57 59  1  0
 59 60  1  0
 60 61  2  0
 18 62  1  0
 62 63  2  0
 62 64  1  0
 64 65  1  0
 65 66  1  0
 65 67  1  0
 67 68  2  0
 67 69  1  0
 69 70  1  0
 70 71  1  0
 70 72  1  0
 72 73  2  0
 72 74  1  0
 74 75  1  0
 75 76  1  0
 75 77  1  0
 77 78  2  0
 77 79  1  0
 79 80  1  0
 80 81  1  0
 80 82  1  0
 82 83  2  0
 82 84  1  0
 84 85  1  0
 85 86  1  0
 85 87  1  0
 87 88  2  0
 87 89  1  0
 89 90  1  0
 90 91  1  0
 90 92  1  0
 92 93  2  0
 92 94  1  0
 94 95  1  0
 95 96  1  0
 96 97  1  0
 96 98  2  0
 95 99  1  0
 99100  1  0
100101  1  0
 60  5  1  0
 14  9  1  0
101 11  1  0
  1102  1  0
  1103  1  0
  1104  1  0
  4105  1  0
  5106  1  1
  6107  1  0
  6108  1  0
  8109  1  0
  8110  1  0
 10111  1  0
 12112  1  0
 14113  1  0
 15114  1  0
 15115  1  0
 17116  1  0
 17117  1  0
 18118  1  6
 19119  1  0
 22120  1  6
 23121  1  0
 23122  1  0
 23123  1  0
 24124  1  0
 27125  1  6
 28126  1  0
 28127  1  0
 28128  1  0
 29129  1  0
 32130  1  1
 33131  1  0
 33132  1  0
 33133  1  0
 34134  1  0
 37135  1  1
 38136  1  0
 38137  1  0
 38138  1  0
 39139  1  0
 42140  1  1
 43141  1  0
 43142  1  0
 43143  1  0
 44144  1  0
 47145  1  6
 48146  1  0
 48147  1  0
 48148  1  0
 49149  1  0
 52150  1  6
 53151  1  0
 53152  1  0
 53153  1  0
 54154  1  0
 57155  1  6
 58156  1  0
 58157  1  0
 58158  1  0
 59159  1  0
 64160  1  0
 65161  1  1
 66162  1  0
 66163  1  0
 66164  1  0
 69165  1  0
 70166  1  1
 71167  1  0
 71168  1  0
 71169  1  0
 74170  1  0
 75171  1  6
 76172  1  0
 76173  1  0
 76174  1  0
 79175  1  0
 80176  1  6
 81177  1  0
 81178  1  0
 81179  1  0
 84180  1  0
 85181  1  6
 86182  1  0
 86183  1  0
 86184  1  0
 89185  1  0
 90186  1  6
 91187  1  0
 91188  1  0
 91189  1  0
 94190  1  0
 95191  1  6
 97192  1  0
 97193  1  0
 99194  1  0
 99195  1  0
101196  1  0
101197  1  0
M  END
