
     RDKit          3D

227229  0  0  0  0  0  0  0  0999 V2000
   -4.1901    8.7212   -1.1029 C   0  0  0  0  0  0  0  0  0  0  0  0
   -5.3947    7.9365   -1.4822 C   0  0  0  0  0  0  0  0  0  0  0  0
   -6.1706    8.3907   -2.3608 O   0  0  0  0  0  0  0  0  0  0  0  0
   -5.6464    6.6286   -0.9212 N   0  0  0  0  0  0  0  0  0  0  0  0
   -5.0576    6.1304    0.3055 C   0  0  2  0  0  0  0  0  0  0  0  0
   -3.6830    5.5258    0.0368 C   0  0  0  0  0  0  0  0  0  0  0  0
   -3.7689    4.2164   -1.2199 S   0  0  0  0  0  0  0  0  0  0  0  0
   -2.0677    4.3242   -1.7972 C   0  0  0  0  0  0  0  0  0  0  0  0
   -1.0916    3.8168   -0.7938 C   0  0  0  0  0  0  0  0  0  0  0  0
    0.1045    4.5208   -0.6296 C   0  0  0  0  0  0  0  0  0  0  0  0
    1.2612    3.8710   -0.2110 C   0  0  0  0  0  0  0  0  0  0  0  0
    1.2012    2.5017    0.0952 C   0  0  0  0  0  0  0  0  0  0  0  0
    0.0299    1.7769   -0.1404 C   0  0  0  0  0  0  0  0  0  0  0  0
   -1.1611    2.4661   -0.4034 C   0  0  0  0  0  0  0  0  0  0  0  0
    0.1769    0.4069   -0.7460 C   0  0  0  0  0  0  0  0  0  0  0  0
   -0.3197   -0.9616    0.3746 S   0  0  0  0  0  0  0  0  0  0  0  0
   -1.3338   -1.9007   -0.8180 C   0  0  0  0  0  0  0  0  0  0  0  0
   -1.0358   -3.4180   -0.7787 C   0  0  2  0  0  0  0  0  0  0  0  0
   -1.2771   -3.9388    0.5850 N   0  0  0  0  0  0  0  0  0  0  0  0
   -2.5061   -4.5349    1.0284 C   0  0  0  0  0  0  0  0  0  0  0  0
   -2.4810   -5.2226    2.0742 O   0  0  0  0  0  0  0  0  0  0  0  0
   -3.8294   -4.3116    0.3243 C   0  0  1  0  0  0  0  0  0  0  0  0
   -4.1117   -5.3955   -0.7615 C   0  0  0  0  0  0  0  0  0  0  0  0
   -4.9277   -4.1672    1.2731 N   0  0  0  0  0  0  0  0  0  0  0  0
   -5.6635   -5.1817    2.0165 C   0  0  0  0  0  0  0  0  0  0  0  0
   -6.6488   -4.7947    2.7272 O   0  0  0  0  0  0  0  0  0  0  0  0
   -5.3189   -6.6335    2.0455 C   0  0  1  0  0  0  0  0  0  0  0  0
   -4.8611   -7.0123    3.4677 C   0  0  0  0  0  0  0  0  0  0  0  0
   -6.4424   -7.4665    1.6516 N   0  0  0  0  0  0  0  0  0  0  0  0
   -7.0256   -7.4966    0.3572 C   0  0  0  0  0  0  0  0  0  0  0  0
   -6.6673   -8.4132   -0.4268 O   0  0  0  0  0  0  0  0  0  0  0  0
   -8.1008   -6.5084   -0.0619 C   0  0  1  0  0  0  0  0  0  0  0  0
   -8.4859   -6.6742   -1.5366 C   0  0  0  0  0  0  0  0  0  0  0  0
   -9.2885   -6.7150    0.7959 N   0  0  0  0  0  0  0  0  0  0  0  0
  -10.5219   -5.9995    0.6990 C   0  0  0  0  0  0  0  0  0  0  0  0
  -11.5989   -6.6737    0.7790 O   0  0  0  0  0  0  0  0  0  0  0  0
  -10.6685   -4.4853    0.6001 C   0  0  1  0  0  0  0  0  0  0  0  0
   -9.4111   -3.7135    0.9754 C   0  0  0  0  0  0  0  0  0  0  0  0
  -11.1561   -4.1102   -0.7403 N   0  0  0  0  0  0  0  0  0  0  0  0
  -12.0206   -2.9936   -0.9388 C   0  0  0  0  0  0  0  0  0  0  0  0
  -13.1864   -3.1873   -1.3807 O   0  0  0  0  0  0  0  0  0  0  0  0
  -11.5554   -1.5608   -0.7246 C   0  0  1  0  0  0  0  0  0  0  0  0
  -11.4137   -0.8915   -2.1059 C   0  0  0  0  0  0  0  0  0  0  0  0
  -12.4859   -0.8325    0.1189 N   0  0  0  0  0  0  0  0  0  0  0  0
  -12.1756    0.4821    0.6075 C   0  0  0  0  0  0  0  0  0  0  0  0
  -11.3148    0.6095    1.5240 O   0  0  0  0  0  0  0  0  0  0  0  0
  -12.6856    1.7117   -0.1023 C   0  0  1  0  0  0  0  0  0  0  0  0
  -13.9313    1.4158   -0.9672 C   0  0  0  0  0  0  0  0  0  0  0  0
  -13.0473    2.7443    0.9005 N   0  0  0  0  0  0  0  0  0  0  0  0
  -12.8488    4.1343    0.6760 C   0  0  0  0  0  0  0  0  0  0  0  0
  -13.7826    4.9282    0.9972 O   0  0  0  0  0  0  0  0  0  0  0  0
  -11.5355    4.7223    0.2001 C   0  0  1  0  0  0  0  0  0  0  0  0
  -11.7857    5.7200   -0.9336 C   0  0  0  0  0  0  0  0  0  0  0  0
  -10.8579    5.3793    1.3261 N   0  0  0  0  0  0  0  0  0  0  0  0
   -9.4854    5.1535    1.5994 C   0  0  0  0  0  0  0  0  0  0  0  0
   -9.1427    4.5641    2.6617 O   0  0  0  0  0  0  0  0  0  0  0  0
   -8.4210    5.7900    0.7379 C   0  0  1  0  0  0  0  0  0  0  0  0
   -7.9915    7.1168    1.3773 C   0  0  0  0  0  0  0  0  0  0  0  0
   -7.3197    4.8495    0.5434 N   0  0  0  0  0  0  0  0  0  0  0  0
   -5.9584    5.0668    0.9642 C   0  0  0  0  0  0  0  0  0  0  0  0
   -5.4999    4.3492    1.8928 O   0  0  0  0  0  0  0  0  0  0  0  0
    0.3942   -3.6949   -1.2078 C   0  0  0  0  0  0  0  0  0  0  0  0
    0.9640   -2.9422   -2.0524 O   0  0  0  0  0  0  0  0  0  0  0  0
    1.1474   -4.8237   -0.6615 N   0  0  0  0  0  0  0  0  0  0  0  0
    0.7116   -6.1989   -0.8809 C   0  0  2  0  0  0  0  0  0  0  0  0
    0.5303   -6.8985    0.4530 C   0  0  0  0  0  0  0  0  0  0  0  0
    1.7159   -6.9455   -1.7377 C   0  0  0  0  0  0  0  0  0  0  0  0
    1.2704   -7.7878   -2.5717 O   0  0  0  0  0  0  0  0  0  0  0  0
    3.0974   -6.6275   -1.7807 N   0  0  0  0  0  0  0  0  0  0  0  0
    4.1227   -7.1242   -0.8541 C   0  0  2  0  0  0  0  0  0  0  0  0
    3.7015   -8.4267   -0.1305 C   0  0  0  0  0  0  0  0  0  0  0  0
    4.5356   -6.0562    0.1224 C   0  0  0  0  0  0  0  0  0  0  0  0
    3.7700   -5.7935    1.1136 O   0  0  0  0  0  0  0  0  0  0  0  0
    5.6757   -5.2299   -0.0572 N   0  0  0  0  0  0  0  0  0  0  0  0
    7.0442   -5.7028   -0.3220 C   0  0  2  0  0  0  0  0  0  0  0  0
    7.3199   -7.0371    0.3729 C   0  0  0  0  0  0  0  0  0  0  0  0
    8.0425   -4.6744    0.1353 C   0  0  0  0  0  0  0  0  0  0  0  0
    7.9915   -4.2702    1.3444 O   0  0  0  0  0  0  0  0  0  0  0  0
    8.9796   -4.0812   -0.7531 N   0  0  0  0  0  0  0  0  0  0  0  0
   10.3332   -4.6266   -1.0099 C   0  0  2  0  0  0  0  0  0  0  0  0
   10.2679   -5.9752   -1.7655 C   0  0  0  0  0  0  0  0  0  0  0  0
   11.0931   -4.7603    0.2918 C   0  0  0  0  0  0  0  0  0  0  0  0
   10.7445   -5.6578    1.1078 O   0  0  0  0  0  0  0  0  0  0  0  0
   12.2700   -4.0021    0.5953 N   0  0  0  0  0  0  0  0  0  0  0  0
   12.4654   -2.5877    0.2763 C   0  0  2  0  0  0  0  0  0  0  0  0
   13.9331   -2.2571    0.5434 C   0  0  0  0  0  0  0  0  0  0  0  0
   11.4848   -1.7258    1.0562 C   0  0  0  0  0  0  0  0  0  0  0  0
   10.4283   -2.2885    1.4233 O   0  0  0  0  0  0  0  0  0  0  0  0
   11.5351   -0.2760    1.1581 N   0  0  0  0  0  0  0  0  0  0  0  0
   12.6825    0.6130    0.9885 C   0  0  2  0  0  0  0  0  0  0  0  0
   12.5291    1.7659    1.9804 C   0  0  0  0  0  0  0  0  0  0  0  0
   12.7893    1.0243   -0.4841 C   0  0  0  0  0  0  0  0  0  0  0  0
   12.9819    0.1453   -1.3699 O   0  0  0  0  0  0  0  0  0  0  0  0
   12.6410    2.3891   -0.8638 N   0  0  0  0  0  0  0  0  0  0  0  0
   11.3475    2.9645   -1.2781 C   0  0  2  0  0  0  0  0  0  0  0  0
   11.5414    3.9603   -2.4109 C   0  0  0  0  0  0  0  0  0  0  0  0
   10.6617    3.6739   -0.1206 C   0  0  0  0  0  0  0  0  0  0  0  0
   11.3285    4.4615    0.6381 O   0  0  0  0  0  0  0  0  0  0  0  0
    9.2828    3.4404    0.1021 N   0  0  0  0  0  0  0  0  0  0  0  0
    8.6913    3.9888    1.3119 C   0  0  2  0  0  0  0  0  0  0  0  0
    7.4252    3.2218    1.8918 C   0  0  0  0  0  0  0  0  0  0  0  0
    8.2609    5.4207    0.9941 C   0  0  0  0  0  0  0  0  0  0  0  0
    7.4067    5.5339    0.0787 O   0  0  0  0  0  0  0  0  0  0  0  0
    8.4416    6.4581    1.9298 N   0  0  0  0  0  0  0  0  0  0  0  0
    7.3883    7.4539    2.2271 C   0  0  2  0  0  0  0  0  0  0  0  0
    6.2619    6.7801    3.0605 C   0  0  0  0  0  0  0  0  0  0  0  0
    6.8596    8.0688    0.9428 C   0  0  0  0  0  0  0  0  0  0  0  0
    7.5781    8.9380    0.3210 O   0  0  0  0  0  0  0  0  0  0  0  0
    5.4830    7.7908    0.4925 N   0  0  0  0  0  0  0  0  0  0  0  0
    4.9857    7.9034   -0.8669 C   0  0  1  0  0  0  0  0  0  0  0  0
    6.0848    7.6840   -1.9150 C   0  0  0  0  0  0  0  0  0  0  0  0
    6.5464    8.7782   -2.6854 N   0  0  0  0  0  0  0  0  0  0  0  0
    6.4503    6.4835   -2.1567 O   0  0  0  0  0  0  0  0  0  0  0  0
    3.7143    6.9530   -0.9944 C   0  0  0  0  0  0  0  0  0  0  0  0
    3.4591    5.6780    0.3430 S   0  0  0  0  0  0  0  0  0  0  0  0
    2.6157    4.3909   -0.6949 C   0  0  0  0  0  0  0  0  0  0  0  0
   -3.2733    8.2310   -1.5004 H   0  0  0  0  0  0  0  0  0  0  0  0
   -4.1081    8.8474   -0.0032 H   0  0  0  0  0  0  0  0  0  0  0  0
   -4.2336    9.7459   -1.5610 H   0  0  0  0  0  0  0  0  0  0  0  0
   -6.3290    6.0248   -1.4745 H   0  0  0  0  0  0  0  0  0  0  0  0
   -4.9622    6.9551    1.0600 H   0  0  0  0  0  0  0  0  0  0  0  0
   -3.2388    5.1077    0.9521 H   0  0  0  0  0  0  0  0  0  0  0  0
   -2.9980    6.3298   -0.2925 H   0  0  0  0  0  0  0  0  0  0  0  0
   -1.8361    5.3537   -2.1539 H   0  0  0  0  0  0  0  0  0  0  0  0
   -2.0112    3.6641   -2.6876 H   0  0  0  0  0  0  0  0  0  0  0  0
    0.1945    5.5362   -0.9196 H   0  0  0  0  0  0  0  0  0  0  0  0
    2.1064    1.9587    0.4557 H   0  0  0  0  0  0  0  0  0  0  0  0
   -2.0174    1.9044   -0.6697 H   0  0  0  0  0  0  0  0  0  0  0  0
    1.2481    0.2238   -1.1110 H   0  0  0  0  0  0  0  0  0  0  0  0
   -0.4101    0.3770   -1.7003 H   0  0  0  0  0  0  0  0  0  0  0  0
   -1.2228   -1.5744   -1.8852 H   0  0  0  0  0  0  0  0  0  0  0  0
   -2.3943   -1.7188   -0.5698 H   0  0  0  0  0  0  0  0  0  0  0  0
   -1.6913   -3.9431   -1.4962 H   0  0  0  0  0  0  0  0  0  0  0  0
   -0.5100   -3.8524    1.2748 H   0  0  0  0  0  0  0  0  0  0  0  0
   -3.7778   -3.3668   -0.2252 H   0  0  0  0  0  0  0  0  0  0  0  0
   -3.8416   -4.9962   -1.7606 H   0  0  0  0  0  0  0  0  0  0  0  0
   -3.5234   -6.3090   -0.5918 H   0  0  0  0  0  0  0  0  0  0  0  0
   -5.1988   -5.6410   -0.7944 H   0  0  0  0  0  0  0  0  0  0  0  0
   -5.2133   -3.1807    1.4854 H   0  0  0  0  0  0  0  0  0  0  0  0
   -4.4857   -6.8800    1.3683 H   0  0  0  0  0  0  0  0  0  0  0  0
   -4.0723   -6.3190    3.8158 H   0  0  0  0  0  0  0  0  0  0  0  0
   -5.7259   -6.9417    4.1635 H   0  0  0  0  0  0  0  0  0  0  0  0
   -4.4721   -8.0416    3.4814 H   0  0  0  0  0  0  0  0  0  0  0  0
   -6.7185   -8.2693    2.2482 H   0  0  0  0  0  0  0  0  0  0  0  0
   -7.6919   -5.4808    0.0679 H   0  0  0  0  0  0  0  0  0  0  0  0
   -9.2442   -5.9185   -1.8326 H   0  0  0  0  0  0  0  0  0  0  0  0
   -8.9085   -7.6964   -1.7211 H   0  0  0  0  0  0  0  0  0  0  0  0
   -7.5944   -6.5351   -2.1926 H   0  0  0  0  0  0  0  0  0  0  0  0
   -9.3188   -7.6029    1.3377 H   0  0  0  0  0  0  0  0  0  0  0  0
  -11.4494   -4.2066    1.3424 H   0  0  0  0  0  0  0  0  0  0  0  0
   -8.7769   -3.5179    0.0831 H   0  0  0  0  0  0  0  0  0  0  0  0
   -8.8388   -4.2498    1.7484 H   0  0  0  0  0  0  0  0  0  0  0  0
   -9.6860   -2.7342    1.4221 H   0  0  0  0  0  0  0  0  0  0  0  0
  -11.2044   -4.8446   -1.4738 H   0  0  0  0  0  0  0  0  0  0  0  0
  -10.5457   -1.5601   -0.2629 H   0  0  0  0  0  0  0  0  0  0  0  0
  -11.0219    0.1409   -1.9879 H   0  0  0  0  0  0  0  0  0  0  0  0
  -10.7098   -1.4600   -2.7373 H   0  0  0  0  0  0  0  0  0  0  0  0
  -12.4026   -0.8508   -2.6138 H   0  0  0  0  0  0  0  0  0  0  0  0
  -13.2080   -1.3625    0.6625 H   0  0  0  0  0  0  0  0  0  0  0  0
  -11.9007    2.0878   -0.7728 H   0  0  0  0  0  0  0  0  0  0  0  0
  -14.6055    0.6852   -0.4734 H   0  0  0  0  0  0  0  0  0  0  0  0
  -14.4952    2.3561   -1.1543 H   0  0  0  0  0  0  0  0  0  0  0  0
  -13.6077    1.0216   -1.9601 H   0  0  0  0  0  0  0  0  0  0  0  0
  -13.7354    2.4532    1.6253 H   0  0  0  0  0  0  0  0  0  0  0  0
  -10.8785    3.9131   -0.1983 H   0  0  0  0  0  0  0  0  0  0  0  0
  -12.4708    5.2892   -1.6921 H   0  0  0  0  0  0  0  0  0  0  0  0
  -10.8363    5.9785   -1.4509 H   0  0  0  0  0  0  0  0  0  0  0  0
  -12.2318    6.6623   -0.5387 H   0  0  0  0  0  0  0  0  0  0  0  0
  -11.4447    5.7831    2.0908 H   0  0  0  0  0  0  0  0  0  0  0  0
   -8.8609    6.0137   -0.2605 H   0  0  0  0  0  0  0  0  0  0  0  0
   -7.4314    7.7398    0.6521 H   0  0  0  0  0  0  0  0  0  0  0  0
   -7.3855    6.9457    2.2799 H   0  0  0  0  0  0  0  0  0  0  0  0
   -8.8989    7.7081    1.6799 H   0  0  0  0  0  0  0  0  0  0  0  0
   -7.5562    3.8752    0.2272 H   0  0  0  0  0  0  0  0  0  0  0  0
    2.1165   -4.6138   -0.3700 H   0  0  0  0  0  0  0  0  0  0  0  0
   -0.2629   -6.2156   -1.3920 H   0  0  0  0  0  0  0  0  0  0  0  0
    0.4599   -7.9924    0.3378 H   0  0  0  0  0  0  0  0  0  0  0  0
   -0.4096   -6.5496    0.9430 H   0  0  0  0  0  0  0  0  0  0  0  0
    1.3702   -6.6590    1.1656 H   0  0  0  0  0  0  0  0  0  0  0  0
    3.4772   -6.3089   -2.7115 H   0  0  0  0  0  0  0  0  0  0  0  0
    5.0337   -7.3946   -1.4524 H   0  0  0  0  0  0  0  0  0  0  0  0
    3.1936   -9.1177   -0.8345 H   0  0  0  0  0  0  0  0  0  0  0  0
    4.5979   -8.9523    0.2758 H   0  0  0  0  0  0  0  0  0  0  0  0
    3.0220   -8.2238    0.7233 H   0  0  0  0  0  0  0  0  0  0  0  0
    5.5650   -4.2182    0.2072 H   0  0  0  0  0  0  0  0  0  0  0  0
    7.1734   -5.8519   -1.4233 H   0  0  0  0  0  0  0  0  0  0  0  0
    6.9965   -7.8963   -0.2629 H   0  0  0  0  0  0  0  0  0  0  0  0
    8.4137   -7.1829    0.6011 H   0  0  0  0  0  0  0  0  0  0  0  0
    6.7744   -7.0942    1.3515 H   0  0  0  0  0  0  0  0  0  0  0  0
    8.8258   -3.0723   -1.0126 H   0  0  0  0  0  0  0  0  0  0  0  0
   10.8688   -3.9141   -1.6609 H   0  0  0  0  0  0  0  0  0  0  0  0
    9.5832   -5.8831   -2.6211 H   0  0  0  0  0  0  0  0  0  0  0  0
    9.9207   -6.7672   -1.0981 H   0  0  0  0  0  0  0  0  0  0  0  0
   11.2734   -6.2306   -2.1218 H   0  0  0  0  0  0  0  0  0  0  0  0
   12.9337   -4.4288    1.2849 H   0  0  0  0  0  0  0  0  0  0  0  0
   12.2929   -2.4249   -0.7973 H   0  0  0  0  0  0  0  0  0  0  0  0
   14.6103   -3.1115    0.2184 H   0  0  0  0  0  0  0  0  0  0  0  0
   14.1239   -2.0983    1.6500 H   0  0  0  0  0  0  0  0  0  0  0  0
   14.3175   -1.3840   -0.0503 H   0  0  0  0  0  0  0  0  0  0  0  0
   10.6132    0.1879    1.3518 H   0  0  0  0  0  0  0  0  0  0  0  0
   13.5861    0.0820    1.2938 H   0  0  0  0  0  0  0  0  0  0  0  0
   11.6292    2.3609    1.8169 H   0  0  0  0  0  0  0  0  0  0  0  0
   13.3990    2.4667    1.8186 H   0  0  0  0  0  0  0  0  0  0  0  0
   12.5371    1.3837    3.0260 H   0  0  0  0  0  0  0  0  0  0  0  0
   13.5267    2.8962   -1.1717 H   0  0  0  0  0  0  0  0  0  0  0  0
   10.7296    2.1421   -1.6112 H   0  0  0  0  0  0  0  0  0  0  0  0
   12.2564    3.5929   -3.1500 H   0  0  0  0  0  0  0  0  0  0  0  0
   11.9030    4.9600   -2.0000 H   0  0  0  0  0  0  0  0  0  0  0  0
   10.5275    4.1063   -2.8802 H   0  0  0  0  0  0  0  0  0  0  0  0
    8.9558    2.4422   -0.0421 H   0  0  0  0  0  0  0  0  0  0  0  0
    9.3785    3.9208    2.1489 H   0  0  0  0  0  0  0  0  0  0  0  0
    7.3914    3.6642    2.9485 H   0  0  0  0  0  0  0  0  0  0  0  0
    6.4379    3.5688    1.5255 H   0  0  0  0  0  0  0  0  0  0  0  0
    7.5946    2.2468    2.4309 H   0  0  0  0  0  0  0  0  0  0  0  0
    9.0190    6.2195    2.7829 H   0  0  0  0  0  0  0  0  0  0  0  0
    7.7623    8.3016    2.8515 H   0  0  0  0  0  0  0  0  0  0  0  0
    5.9750    5.8113    2.5894 H   0  0  0  0  0  0  0  0  0  0  0  0
    5.3625    7.4257    3.2273 H   0  0  0  0  0  0  0  0  0  0  0  0
    6.7194    6.5448    4.0274 H   0  0  0  0  0  0  0  0  0  0  0  0
    4.7487    8.3065    1.1113 H   0  0  0  0  0  0  0  0  0  0  0  0
    4.5644    8.9177   -1.1640 H   0  0  0  0  0  0  0  0  0  0  0  0
    7.4982    8.7305   -3.1293 H   0  0  0  0  0  0  0  0  0  0  0  0
    7.4856    8.8280   -3.1284 H   0  0  0  0  0  0  0  0  0  0  0  0
    2.8117    7.6371   -0.8657 H   0  0  0  0  0  0  0  0  0  0  0  0
    3.7503    6.4661   -1.9850 H   0  0  0  0  0  0  0  0  0  0  0  0
    3.3498    3.5263   -0.8343 H   0  0  0  0  0  0  0  0  0  0  0  0
    2.4495    4.7220   -1.7475 H   0  0  0  0  0  0  0  0  0  0  0  0
  1  2  1  0
  2  3  2  0
  2  4  1  0
  4  5  1  0
  5  6  1  0
  6  7  1  0
  7  8  1  0
  8  9  1  0
  9 10  2  0
 10 11  1  0
 11 12  2  0
 12 13  1  0
 13 14  2  0
 13 15  1  0
 15 16  1  0
 16 17  1  0
 17 18  1  0
 18 19  1  0
 19 20  1  0
 20 21  2  0
 20 22  1  0
 22 23  1  0
 22 24  1  0
 24 25  1  0
 25 26  2  0
 25 27  1  0
 27 28  1  0
 27 29  1  0
 29 30  1  0
 30 31  2  0
 30 32  1  0
 32 33  1  0
 32 34  1  0
 34 35  1  0
 35 36  2  0
 35 37  1  0
 37 38  1  0
 37 39  1  0
 39 40  1  0
 40 41  2  0
 40 42  1  0
 42 43  1  0
 42 44  1  0
 44 45  1  0
 45 46  2  0
 45 47  1  0
 47 48  1  0
 47 49  1  0
 49 50  1  0
 50 51  2  0
 50 52  1  0
 52 53  1  0
 52 54  1  0
 54 55  1  0
 55 56  2  0
 55 57  1  0
 57 58  1  0
 57 59  1  0
 59 60  1  0
 60 61  2  0
 18 62  1  0
 62 63  2  0
 62 64  1  0
 64 65  1  0
 65 66  1  0
 65 67  1  0
 67 68  2  0
 67 69  1  0
 69 70  1  0
 70 71  1  0
 70 72  1  0
 72 73  2  0
 72 74  1  0
 74 75  1  0
 75 76  1  0
 75 77  1  0
 77 78  2  0
 77 79  1  0
 79 80  1  0
 80 81  1  0
 80 82  1  0
 82 83  2  0
 82 84  1  0
 84 85  1  0
 85 86  1  0
 85 87  1  0
 87 88  2  0
 87 89  1  0
 89 90  1  0
 90 91  1  0
 90 92  1  0
 92 93  2  0
 92 94  1  0
 94 95  1  0
 95 96  1  0
 95 97  1  0
 97 98  2  0
 97 99  1  0
 99100  1  0
100101  1  0
100102  1  0
102103  2  0
102104  1  0
104105  1  0
105106  1  0
105107  1  0
107108  2  0
107109  1  0
109110  1  0
110111  1  0
111112  1  0
111113  2  0
110114  1  0
114115  1  0
115116  1  0
 60  5  1  0
 14  9  1  0
116 11  1  0
  1117  1  0
  1118  1  0
  1119  1  0
  4120  1  0
  5121  1  1
  6122  1  0
  6123  1  0
  8124  1  0
  8125  1  0
 10126  1  0
 12127  1  0
 14128  1  0
 15129  1  0
 15130  1  0
 17131  1  0
 17132  1  0
 18133  1  6
 19134  1  0
 22135  1  6
 23136  1  0
 23137  1  0
 23138  1  0
 24139  1  0
 27140  1  6
 28141  1  0
 28142  1  0
 28143  1  0
 29144  1  0
 32145  1  6
 33146  1  0
 33147  1  0
 33148  1  0
 34149  1  0
 37150  1  1
 38151  1  0
 38152  1  0
 38153  1  0
 39154  1  0
 42155  1  1
 43156  1  0
 43157  1  0
 43158  1  0
 44159  1  0
 47160  1  6
 48161  1  0
 48162  1  0
 48163  1  0
 49164  1  0
 52165  1  6
 53166  1  0
 53167  1  0
 53168  1  0
 54169  1  0
 57170  1  6
 58171  1  0
 58172  1  0
 58173  1  0
 59174  1  0
 64175  1  0
 65176  1  6
 66177  1  0
 66178  1  0
 66179  1  0
 69180  1  0
 70181  1  6
 71182  1  0
 71183  1  0
 71184  1  0
 74185  1  0
 75186  1  6
 76187  1  0
 76188  1  0
 76189  1  0
 79190  1  0
 80191  1  6
 81192  1  0
 81193  1  0
 81194  1  0
 84195  1  0
 85196  1  6
 86197  1  0
 86198  1  0
 86199  1  0
 89200  1  0
 90201  1  1
 91202  1  0
 91203  1  0
 91204  1  0
 94205  1  0
 95206  1  6
 96207  1  0
 96208  1  0
 96209  1  0
 99210  1  0
100211  1  1
101212  1  0
101213  1  0
101214  1  0
104215  1  0
105216  1  1
106217  1  0
106218  1  0
106219  1  0
109220  1  0
110221  1  1
112222  1  0
112223  1  0
114224  1  0
114225  1  0
116226  1  0
116227  1  0
M  END
