
     RDKit          3D

177179  0  0  0  0  0  0  0  0999 V2000
   -0.1007    8.8112    0.9445 C   0  0  0  0  0  0  0  0  0  0  0  0
   -0.1042    7.8270    2.0789 C   0  0  0  0  0  0  0  0  0  0  0  0
   -0.4009    8.2319    3.2369 O   0  0  0  0  0  0  0  0  0  0  0  0
    0.2493    6.4452    1.8958 N   0  0  0  0  0  0  0  0  0  0  0  0
    0.4868    5.8314    0.5871 C   0  0  2  0  0  0  0  0  0  0  0  0
   -0.8238    5.2305    0.0459 C   0  0  0  0  0  0  0  0  0  0  0  0
   -0.5578    4.5456   -1.6329 S   0  0  0  0  0  0  0  0  0  0  0  0
   -2.2887    4.7015   -2.1885 C   0  0  0  0  0  0  0  0  0  0  0  0
   -3.1860    3.7147   -1.4924 C   0  0  0  0  0  0  0  0  0  0  0  0
   -3.0179    2.3360   -1.6938 C   0  0  0  0  0  0  0  0  0  0  0  0
   -3.8954    1.4174   -1.0970 C   0  0  0  0  0  0  0  0  0  0  0  0
   -4.9621    1.8916   -0.3161 C   0  0  0  0  0  0  0  0  0  0  0  0
   -5.1390    3.2669   -0.0974 C   0  0  0  0  0  0  0  0  0  0  0  0
   -4.2143    4.1663   -0.6499 C   0  0  0  0  0  0  0  0  0  0  0  0
   -6.2132    3.7421    0.8481 C   0  0  0  0  0  0  0  0  0  0  0  0
   -7.0080    5.2953    0.2843 S   0  0  0  0  0  0  0  0  0  0  0  0
   -8.1822    4.5437   -0.9047 C   0  0  0  0  0  0  0  0  0  0  0  0
   -9.5787    4.3617   -0.2532 C   0  0  1  0  0  0  0  0  0  0  0  0
  -10.1256    5.6846    0.2192 C   0  0  0  0  0  0  0  0  0  0  0  0
  -10.3845    6.7408   -0.7032 N   0  0  0  0  0  0  0  0  0  0  0  0
  -10.3386    5.8686    1.4523 O   0  0  0  0  0  0  0  0  0  0  0  0
  -10.5000    3.7388   -1.2181 N   0  0  0  0  0  0  0  0  0  0  0  0
  -10.6740    2.3248   -1.3919 C   0  0  0  0  0  0  0  0  0  0  0  0
  -11.5727    1.9217   -2.1763 O   0  0  0  0  0  0  0  0  0  0  0  0
   -9.8661    1.2992   -0.6288 C   0  0  1  0  0  0  0  0  0  0  0  0
  -10.6208    0.8746    0.6338 C   0  0  0  0  0  0  0  0  0  0  0  0
   -9.5188    0.1743   -1.5238 N   0  0  0  0  0  0  0  0  0  0  0  0
  -10.2318   -1.0695   -1.5803 C   0  0  0  0  0  0  0  0  0  0  0  0
  -11.0389   -1.2647   -2.5242 O   0  0  0  0  0  0  0  0  0  0  0  0
   -9.8776   -2.1843   -0.6272 C   0  0  1  0  0  0  0  0  0  0  0  0
  -10.9793   -3.2431   -0.5338 C   0  0  0  0  0  0  0  0  0  0  0  0
   -8.6132   -2.8074   -1.0130 N   0  0  0  0  0  0  0  0  0  0  0  0
   -7.3697   -2.1032   -0.8715 C   0  0  0  0  0  0  0  0  0  0  0  0
   -6.8851   -1.5305   -1.8850 O   0  0  0  0  0  0  0  0  0  0  0  0
   -6.5576   -2.1624    0.4017 C   0  0  1  0  0  0  0  0  0  0  0  0
   -7.4325   -2.2336    1.6558 C   0  0  0  0  0  0  0  0  0  0  0  0
   -5.6039   -3.2905    0.3380 N   0  0  0  0  0  0  0  0  0  0  0  0
   -4.4980   -3.3747    1.2484 C   0  0  0  0  0  0  0  0  0  0  0  0
   -4.7122   -3.3638    2.4908 O   0  0  0  0  0  0  0  0  0  0  0  0
   -3.0827   -3.5189    0.7299 C   0  0  1  0  0  0  0  0  0  0  0  0
   -2.7546   -2.4469   -0.3362 C   0  0  0  0  0  0  0  0  0  0  0  0
   -2.9322   -0.7283    0.2820 S   0  0  0  0  0  0  0  0  0  0  0  0
   -3.6670   -0.0531   -1.2431 C   0  0  0  0  0  0  0  0  0  0  0  0
   -2.1277   -3.4274    1.8434 N   0  0  0  0  0  0  0  0  0  0  0  0
   -1.1160   -4.4004    2.1815 C   0  0  0  0  0  0  0  0  0  0  0  0
   -0.0744   -3.9831    2.7632 O   0  0  0  0  0  0  0  0  0  0  0  0
   -1.2333   -5.8919    1.9168 C   0  0  1  0  0  0  0  0  0  0  0  0
   -2.6093   -6.4799    2.2611 C   0  0  0  0  0  0  0  0  0  0  0  0
   -0.8544   -6.2031    0.5342 N   0  0  0  0  0  0  0  0  0  0  0  0
    0.4762   -6.5245    0.0914 C   0  0  0  0  0  0  0  0  0  0  0  0
    0.6897   -6.6561   -1.1445 O   0  0  0  0  0  0  0  0  0  0  0  0
    1.6080   -6.8101    1.0507 C   0  0  1  0  0  0  0  0  0  0  0  0
    1.5878   -8.2964    1.4275 C   0  0  0  0  0  0  0  0  0  0  0  0
    2.8844   -6.3913    0.4617 N   0  0  0  0  0  0  0  0  0  0  0  0
    3.8741   -7.2891   -0.0595 C   0  0  0  0  0  0  0  0  0  0  0  0
    3.8306   -7.6106   -1.2752 O   0  0  0  0  0  0  0  0  0  0  0  0
    5.0019   -7.7434    0.8258 C   0  0  1  0  0  0  0  0  0  0  0  0
    5.5906   -9.0938    0.3883 C   0  0  0  0  0  0  0  0  0  0  0  0
    6.0247   -6.6949    0.9081 N   0  0  0  0  0  0  0  0  0  0  0  0
    6.9884   -6.4646   -0.1243 C   0  0  0  0  0  0  0  0  0  0  0  0
    7.9616   -7.2644   -0.2377 O   0  0  0  0  0  0  0  0  0  0  0  0
    6.9346   -5.2352   -0.9934 C   0  0  1  0  0  0  0  0  0  0  0  0
    6.6628   -5.6167   -2.4460 C   0  0  0  0  0  0  0  0  0  0  0  0
    5.9008   -4.3088   -0.5251 N   0  0  0  0  0  0  0  0  0  0  0  0
    6.1357   -3.2846    0.4647 C   0  0  0  0  0  0  0  0  0  0  0  0
    5.2270   -3.0080    1.2917 O   0  0  0  0  0  0  0  0  0  0  0  0
    7.4507   -2.5232    0.5252 C   0  0  1  0  0  0  0  0  0  0  0  0
    8.4825   -3.3347    1.3425 C   0  0  0  0  0  0  0  0  0  0  0  0
    7.9149   -2.2358   -0.8430 N   0  0  0  0  0  0  0  0  0  0  0  0
    9.1357   -1.5818   -1.2174 C   0  0  0  0  0  0  0  0  0  0  0  0
    9.4796   -1.6226   -2.4374 O   0  0  0  0  0  0  0  0  0  0  0  0
    9.9252   -0.7336   -0.2495 C   0  0  1  0  0  0  0  0  0  0  0  0
   11.3137   -0.3792   -0.8312 C   0  0  0  0  0  0  0  0  0  0  0  0
    9.1659    0.4861    0.0391 N   0  0  0  0  0  0  0  0  0  0  0  0
    9.7379    1.5836    0.7709 C   0  0  0  0  0  0  0  0  0  0  0  0
   10.5532    1.3507    1.7089 O   0  0  0  0  0  0  0  0  0  0  0  0
    9.3576    3.0010    0.4528 C   0  0  1  0  0  0  0  0  0  0  0  0
   10.6097    3.8237    0.1440 C   0  0  0  0  0  0  0  0  0  0  0  0
    8.4440    3.0538   -0.6920 N   0  0  0  0  0  0  0  0  0  0  0  0
    7.2207    3.8019   -0.7299 C   0  0  0  0  0  0  0  0  0  0  0  0
    6.2758    3.3860   -1.4555 O   0  0  0  0  0  0  0  0  0  0  0  0
    7.0614    5.1171   -0.0089 C   0  0  1  0  0  0  0  0  0  0  0  0
    7.3431    6.2545   -1.0056 C   0  0  0  0  0  0  0  0  0  0  0  0
    5.7128    5.1852    0.5711 N   0  0  0  0  0  0  0  0  0  0  0  0
    4.8767    6.3548    0.5524 C   0  0  0  0  0  0  0  0  0  0  0  0
    5.3176    7.4451    1.0166 O   0  0  0  0  0  0  0  0  0  0  0  0
    3.4884    6.3031   -0.0384 C   0  0  1  0  0  0  0  0  0  0  0  0
    3.5594    6.5775   -1.5469 C   0  0  0  0  0  0  0  0  0  0  0  0
    2.8838    4.9800    0.1815 N   0  0  0  0  0  0  0  0  0  0  0  0
    1.5666    4.7755    0.7110 C   0  0  0  0  0  0  0  0  0  0  0  0
    1.2942    3.6777    1.2655 O   0  0  0  0  0  0  0  0  0  0  0  0
   -0.8204    8.4805    0.1665 H   0  0  0  0  0  0  0  0  0  0  0  0
    0.9164    8.8884    0.5108 H   0  0  0  0  0  0  0  0  0  0  0  0
   -0.4039    9.8196    1.3021 H   0  0  0  0  0  0  0  0  0  0  0  0
    0.2127    5.8236    2.7322 H   0  0  0  0  0  0  0  0  0  0  0  0
    0.8111    6.5917   -0.1367 H   0  0  0  0  0  0  0  0  0  0  0  0
   -1.2032    4.4378    0.7276 H   0  0  0  0  0  0  0  0  0  0  0  0
   -1.5835    6.0400    0.0115 H   0  0  0  0  0  0  0  0  0  0  0  0
   -2.6336    5.7458   -2.0383 H   0  0  0  0  0  0  0  0  0  0  0  0
   -2.3240    4.5149   -3.2830 H   0  0  0  0  0  0  0  0  0  0  0  0
   -2.2102    1.9796   -2.3225 H   0  0  0  0  0  0  0  0  0  0  0  0
   -5.6389    1.1768    0.1513 H   0  0  0  0  0  0  0  0  0  0  0  0
   -4.2967    5.2195   -0.4319 H   0  0  0  0  0  0  0  0  0  0  0  0
   -5.7392    3.9302    1.8323 H   0  0  0  0  0  0  0  0  0  0  0  0
   -6.9855    2.9510    1.0079 H   0  0  0  0  0  0  0  0  0  0  0  0
   -7.8011    3.5711   -1.2744 H   0  0  0  0  0  0  0  0  0  0  0  0
   -8.2688    5.2161   -1.7864 H   0  0  0  0  0  0  0  0  0  0  0  0
   -9.4778    3.7163    0.6351 H   0  0  0  0  0  0  0  0  0  0  0  0
  -10.5581    7.7105   -0.3540 H   0  0  0  0  0  0  0  0  0  0  0  0
  -10.2312    6.6232   -1.7306 H   0  0  0  0  0  0  0  0  0  0  0  0
  -11.1095    4.3637   -1.7974 H   0  0  0  0  0  0  0  0  0  0  0  0
   -8.9069    1.7422   -0.3099 H   0  0  0  0  0  0  0  0  0  0  0  0
  -11.5134    0.2573    0.3945 H   0  0  0  0  0  0  0  0  0  0  0  0
  -10.9744    1.7745    1.1947 H   0  0  0  0  0  0  0  0  0  0  0  0
   -9.9485    0.3201    1.3122 H   0  0  0  0  0  0  0  0  0  0  0  0
   -8.9414    0.4040   -2.3601 H   0  0  0  0  0  0  0  0  0  0  0  0
   -9.7885   -1.7595    0.3818 H   0  0  0  0  0  0  0  0  0  0  0  0
  -11.1142   -3.7562   -1.5090 H   0  0  0  0  0  0  0  0  0  0  0  0
  -10.7100   -3.9998    0.2295 H   0  0  0  0  0  0  0  0  0  0  0  0
  -11.9423   -2.7742   -0.2272 H   0  0  0  0  0  0  0  0  0  0  0  0
   -8.6573   -3.4857   -1.8107 H   0  0  0  0  0  0  0  0  0  0  0  0
   -5.9702   -1.2197    0.4648 H   0  0  0  0  0  0  0  0  0  0  0  0
   -8.0683   -1.3235    1.7012 H   0  0  0  0  0  0  0  0  0  0  0  0
   -8.0655   -3.1451    1.6436 H   0  0  0  0  0  0  0  0  0  0  0  0
   -6.8259   -2.2201    2.5733 H   0  0  0  0  0  0  0  0  0  0  0  0
   -5.4802   -3.7691   -0.5762 H   0  0  0  0  0  0  0  0  0  0  0  0
   -3.0133   -4.4910    0.2235 H   0  0  0  0  0  0  0  0  0  0  0  0
   -1.7088   -2.5947   -0.6702 H   0  0  0  0  0  0  0  0  0  0  0  0
   -3.4066   -2.6111   -1.2217 H   0  0  0  0  0  0  0  0  0  0  0  0
   -4.6371   -0.5445   -1.4523 H   0  0  0  0  0  0  0  0  0  0  0  0
   -3.0012   -0.2618   -2.1035 H   0  0  0  0  0  0  0  0  0  0  0  0
   -2.0872   -2.5238    2.3661 H   0  0  0  0  0  0  0  0  0  0  0  0
   -0.5513   -6.4030    2.6195 H   0  0  0  0  0  0  0  0  0  0  0  0
   -2.5120   -7.5911    2.3066 H   0  0  0  0  0  0  0  0  0  0  0  0
   -2.9516   -6.1307    3.2611 H   0  0  0  0  0  0  0  0  0  0  0  0
   -3.3828   -6.2358    1.5042 H   0  0  0  0  0  0  0  0  0  0  0  0
   -1.5601   -6.0624   -0.2308 H   0  0  0  0  0  0  0  0  0  0  0  0
    1.4893   -6.2218    1.9740 H   0  0  0  0  0  0  0  0  0  0  0  0
    2.3878   -8.5177    2.1615 H   0  0  0  0  0  0  0  0  0  0  0  0
    0.6182   -8.5606    1.9040 H   0  0  0  0  0  0  0  0  0  0  0  0
    1.7157   -8.9403    0.5327 H   0  0  0  0  0  0  0  0  0  0  0  0
    2.9946   -5.3722    0.2477 H   0  0  0  0  0  0  0  0  0  0  0  0
    4.5933   -7.8927    1.8412 H   0  0  0  0  0  0  0  0  0  0  0  0
    6.0263   -9.0339   -0.6333 H   0  0  0  0  0  0  0  0  0  0  0  0
    6.3894   -9.4013    1.0957 H   0  0  0  0  0  0  0  0  0  0  0  0
    4.7947   -9.8711    0.3941 H   0  0  0  0  0  0  0  0  0  0  0  0
    5.9022   -5.9575    1.6446 H   0  0  0  0  0  0  0  0  0  0  0  0
    7.9380   -4.7621   -0.9714 H   0  0  0  0  0  0  0  0  0  0  0  0
    7.3973   -6.3879   -2.7846 H   0  0  0  0  0  0  0  0  0  0  0  0
    6.7670   -4.7232   -3.0957 H   0  0  0  0  0  0  0  0  0  0  0  0
    5.6368   -6.0339   -2.5626 H   0  0  0  0  0  0  0  0  0  0  0  0
    4.9095   -4.5230   -0.7521 H   0  0  0  0  0  0  0  0  0  0  0  0
    7.2663   -1.5598    1.0390 H   0  0  0  0  0  0  0  0  0  0  0  0
    7.9836   -4.1156    1.9572 H   0  0  0  0  0  0  0  0  0  0  0  0
    9.2393   -3.8212    0.7041 H   0  0  0  0  0  0  0  0  0  0  0  0
    8.9959   -2.6614    2.0586 H   0  0  0  0  0  0  0  0  0  0  0  0
    7.2413   -2.3932   -1.6343 H   0  0  0  0  0  0  0  0  0  0  0  0
   10.1004   -1.2881    0.6949 H   0  0  0  0  0  0  0  0  0  0  0  0
   11.8396   -1.3111   -1.1333 H   0  0  0  0  0  0  0  0  0  0  0  0
   11.2076    0.2852   -1.7103 H   0  0  0  0  0  0  0  0  0  0  0  0
   11.9438    0.1229   -0.0698 H   0  0  0  0  0  0  0  0  0  0  0  0
    8.1154    0.4506   -0.0221 H   0  0  0  0  0  0  0  0  0  0  0  0
    8.8723    3.4259    1.3718 H   0  0  0  0  0  0  0  0  0  0  0  0
   11.1551    3.3797   -0.7173 H   0  0  0  0  0  0  0  0  0  0  0  0
   11.2780    3.8486    1.0280 H   0  0  0  0  0  0  0  0  0  0  0  0
   10.3314    4.8691   -0.1046 H   0  0  0  0  0  0  0  0  0  0  0  0
    8.6843    2.4962   -1.5462 H   0  0  0  0  0  0  0  0  0  0  0  0
    7.7919    5.2179    0.8170 H   0  0  0  0  0  0  0  0  0  0  0  0
    6.5645    6.2773   -1.7956 H   0  0  0  0  0  0  0  0  0  0  0  0
    7.3760    7.2324   -0.4903 H   0  0  0  0  0  0  0  0  0  0  0  0
    8.3334    6.0940   -1.4909 H   0  0  0  0  0  0  0  0  0  0  0  0
    5.4116    4.3965    1.1937 H   0  0  0  0  0  0  0  0  0  0  0  0
    2.8946    7.0987    0.4426 H   0  0  0  0  0  0  0  0  0  0  0  0
    4.1130    7.5180   -1.7395 H   0  0  0  0  0  0  0  0  0  0  0  0
    2.5272    6.6930   -1.9444 H   0  0  0  0  0  0  0  0  0  0  0  0
    4.0557    5.7388   -2.0670 H   0  0  0  0  0  0  0  0  0  0  0  0
    3.4221    4.1285   -0.0856 H   0  0  0  0  0  0  0  0  0  0  0  0
  1  2  1  0
  2  3  2  0
  2  4  1  0
  4  5  1  0
  5  6  1  0
  6  7  1  0
  7  8  1  0
  8  9  1  0
  9 10  1  0
 10 11  2  0
 11 12  1  0
 12 13  2  0
 13 14  1  0
 13 15  1  0
 15 16  1  0
 16 17  1  0
 17 18  1  0
 18 19  1  0
 19 20  1  0
 19 21  2  0
 18 22  1  0
 22 23  1  0
 23 24  2  0
 23 25  1  0
 25 26  1  0
 25 27  1  0
 27 28  1  0
 28 29  2  0
 28 30  1  0
 30 31  1  0
 30 32  1  0
 32 33  1  0
 33 34  2  0
 33 35  1  0
 35 36  1  0
 35 37  1  0
 37 38  1  0
 38 39  2  0
 38 40  1  0
 40 41  1  0
 41 42  1  0
 42 43  1  0
 40 44  1  0
 44 45  1  0
 45 46  2  0
 45 47  1  0
 47 48  1  0
 47 49  1  0
 49 50  1  0
 50 51  2  0
 50 52  1  0
 52 53  1  0
 52 54  1  0
 54 55  1  0
 55 56  2  0
 55 57  1  0
 57 58  1  0
 57 59  1  0
 59 60  1  0
 60 61  2  0
 60 62  1  0
 62 63  1  0
 62 64  1  0
 64 65  1  0
 65 66  2  0
 65 67  1  0
 67 68  1  0
 67 69  1  0
 69 70  1  0
 70 71  2  0
 70 72  1  0
 72 73  1  0
 72 74  1  0
 74 75  1  0
 75 76  2  0
 75 77  1  0
 77 78  1  0
 77 79  1  0
 79 80  1  0
 80 81  2  0
 80 82  1  0
 82 83  1  0
 82 84  1  0
 84 85  1  0
 85 86  2  0
 85 87  1  0
 87 88  1  0
 87 89  1  0
 89 90  1  0
 90 91  2  0
 90  5  1  0
 14  9  2  0
 43 11  1  0
  1 92  1  0
  1 93  1  0
  1 94  1  0
  4 95  1  0
  5 96  1  6
  6 97  1  0
  6 98  1  0
  8 99  1  0
  8100  1  0
 10101  1  0
 12102  1  0
 14103  1  0
 15104  1  0
 15105  1  0
 17106  1  0
 17107  1  0
 18108  1  1
 20109  1  0
 20110  1  0
 22111  1  0
 25112  1  1
 26113  1  0
 26114  1  0
 26115  1  0
 27116  1  0
 30117  1  1
 31118  1  0
 31119  1  0
 31120  1  0
 32121  1  0
 35122  1  1
 36123  1  0
 36124  1  0
 36125  1  0
 37126  1  0
 40127  1  6
 41128  1  0
 41129  1  0
 43130  1  0
 43131  1  0
 44132  1  0
 47133  1  1
 48134  1  0
 48135  1  0
 48136  1  0
 49137  1  0
 52138  1  1
 53139  1  0
 53140  1  0
 53141  1  0
 54142  1  0
 57143  1  1
 58144  1  0
 58145  1  0
 58146  1  0
 59147  1  0
 62148  1  6
 63149  1  0
 63150  1  0
 63151  1  0
 64152  1  0
 67153  1  1
 68154  1  0
 68155  1  0
 68156  1  0
 69157  1  0
 72158  1  1
 73159  1  0
 73160  1  0
 73161  1  0
 74162  1  0
 77163  1  1
 78164  1  0
 78165  1  0
 78166  1  0
 79167  1  0
 82168  1  1
 83169  1  0
 83170  1  0
 83171  1  0
 84172  1  0
 87173  1  1
 88174  1  0
 88175  1  0
 88176  1  0
 89177  1  0
M  END
