
     RDKit          3D

177179  0  0  0  0  0  0  0  0999 V2000
   -0.2644    9.8671   -0.8857 C   0  0  0  0  0  0  0  0  0  0  0  0
   -0.0162    8.9155   -2.0146 C   0  0  0  0  0  0  0  0  0  0  0  0
    0.1333    9.3730   -3.1781 O   0  0  0  0  0  0  0  0  0  0  0  0
    0.0576    7.4958   -1.8054 N   0  0  0  0  0  0  0  0  0  0  0  0
   -0.2395    6.8421   -0.5267 C   0  0  1  0  0  0  0  0  0  0  0  0
   -1.7628    6.5778   -0.4308 C   0  0  0  0  0  0  0  0  0  0  0  0
   -2.4206    6.8644    1.2545 S   0  0  0  0  0  0  0  0  0  0  0  0
   -1.9681    5.2613    2.0169 C   0  0  0  0  0  0  0  0  0  0  0  0
   -2.6341    4.0703    1.3677 C   0  0  0  0  0  0  0  0  0  0  0  0
   -3.9840    4.1029    0.9984 C   0  0  0  0  0  0  0  0  0  0  0  0
   -4.5945    2.9855    0.4100 C   0  0  0  0  0  0  0  0  0  0  0  0
   -3.8446    1.8135    0.2017 C   0  0  0  0  0  0  0  0  0  0  0  0
   -2.4827    1.7612    0.5705 C   0  0  0  0  0  0  0  0  0  0  0  0
   -1.9020    2.8898    1.1704 C   0  0  0  0  0  0  0  0  0  0  0  0
   -1.6194    0.5272    0.4153 C   0  0  0  0  0  0  0  0  0  0  0  0
   -2.2355   -0.7218   -0.7800 S   0  0  0  0  0  0  0  0  0  0  0  0
   -2.9412   -1.8715    0.4581 C   0  0  0  0  0  0  0  0  0  0  0  0
   -3.1460   -3.2766   -0.1252 C   0  0  1  0  0  0  0  0  0  0  0  0
   -3.5494   -4.1799    0.9546 N   0  0  0  0  0  0  0  0  0  0  0  0
   -2.8379   -5.3630    1.3514 C   0  0  0  0  0  0  0  0  0  0  0  0
   -2.8032   -5.6575    2.5744 O   0  0  0  0  0  0  0  0  0  0  0  0
   -2.2124   -6.3265    0.3699 C   0  0  1  0  0  0  0  0  0  0  0  0
   -3.1841   -6.7293   -0.7468 C   0  0  0  0  0  0  0  0  0  0  0  0
   -0.9574   -5.8108   -0.1863 N   0  0  0  0  0  0  0  0  0  0  0  0
    0.2361   -5.8341    0.6052 C   0  0  0  0  0  0  0  0  0  0  0  0
    0.3399   -5.0569    1.5922 O   0  0  0  0  0  0  0  0  0  0  0  0
    1.3489   -6.8073    0.2977 C   0  0  1  0  0  0  0  0  0  0  0  0
    0.8034   -8.2387    0.3134 C   0  0  0  0  0  0  0  0  0  0  0  0
    1.9432   -6.5146   -1.0120 N   0  0  0  0  0  0  0  0  0  0  0  0
    3.2916   -6.8705   -1.3554 C   0  0  0  0  0  0  0  0  0  0  0  0
    3.5113   -7.3765   -2.4883 O   0  0  0  0  0  0  0  0  0  0  0  0
    4.4481   -6.6813   -0.3903 C   0  0  1  0  0  0  0  0  0  0  0  0
    4.7431   -8.0144    0.3079 C   0  0  0  0  0  0  0  0  0  0  0  0
    5.6396   -6.1982   -1.1146 N   0  0  0  0  0  0  0  0  0  0  0  0
    6.9131   -5.8517   -0.5362 C   0  0  0  0  0  0  0  0  0  0  0  0
    7.8939   -5.6786   -1.3120 O   0  0  0  0  0  0  0  0  0  0  0  0
    7.1295   -5.6660    0.9516 C   0  0  1  0  0  0  0  0  0  0  0  0
    7.9927   -6.8253    1.4745 C   0  0  0  0  0  0  0  0  0  0  0  0
    7.8088   -4.3974    1.2606 N   0  0  0  0  0  0  0  0  0  0  0  0
    7.8204   -3.2547    0.3924 C   0  0  0  0  0  0  0  0  0  0  0  0
    6.7406   -2.8547   -0.1231 O   0  0  0  0  0  0  0  0  0  0  0  0
    9.1054   -2.4949    0.1312 C   0  0  1  0  0  0  0  0  0  0  0  0
   10.3305   -3.4103    0.2772 C   0  0  0  0  0  0  0  0  0  0  0  0
    9.0863   -1.9386   -1.2280 N   0  0  0  0  0  0  0  0  0  0  0  0
    9.8691   -0.8083   -1.6482 C   0  0  0  0  0  0  0  0  0  0  0  0
   10.3013   -0.7822   -2.8341 O   0  0  0  0  0  0  0  0  0  0  0  0
   10.1948    0.3434   -0.7240 C   0  0  1  0  0  0  0  0  0  0  0  0
   11.5651    0.1380   -0.0690 C   0  0  0  0  0  0  0  0  0  0  0  0
   10.2120    1.6078   -1.4743 N   0  0  0  0  0  0  0  0  0  0  0  0
    9.7342    2.8670   -0.9665 C   0  0  0  0  0  0  0  0  0  0  0  0
   10.2594    3.9261   -1.4055 O   0  0  0  0  0  0  0  0  0  0  0  0
    8.6587    2.9580    0.0981 C   0  0  1  0  0  0  0  0  0  0  0  0
    9.2925    2.9686    1.4922 C   0  0  0  0  0  0  0  0  0  0  0  0
    7.8371    4.1655   -0.0728 N   0  0  0  0  0  0  0  0  0  0  0  0
    6.5803    4.3166    0.6141 C   0  0  0  0  0  0  0  0  0  0  0  0
    5.8935    3.2839    0.8673 O   0  0  0  0  0  0  0  0  0  0  0  0
    6.0943    5.6639    1.1317 C   0  0  1  0  0  0  0  0  0  0  0  0
    6.7248    6.8495    0.3789 C   0  0  0  0  0  0  0  0  0  0  0  0
    4.6188    5.7038    1.1039 N   0  0  0  0  0  0  0  0  0  0  0  0
    3.8330    6.8690    0.8232 C   0  0  0  0  0  0  0  0  0  0  0  0
    3.9769    7.9094    1.5210 O   0  0  0  0  0  0  0  0  0  0  0  0
    2.8462    6.8630   -0.3131 C   0  0  1  0  0  0  0  0  0  0  0  0
    3.5914    6.9499   -1.6447 C   0  0  0  0  0  0  0  0  0  0  0  0
    2.0359    5.6394   -0.2832 N   0  0  0  0  0  0  0  0  0  0  0  0
    0.6051    5.5853   -0.4147 C   0  0  0  0  0  0  0  0  0  0  0  0
    0.0603    4.4521   -0.4969 O   0  0  0  0  0  0  0  0  0  0  0  0
   -4.1865   -3.2567   -1.2200 C   0  0  0  0  0  0  0  0  0  0  0  0
   -3.8166   -3.1905   -2.4228 O   0  0  0  0  0  0  0  0  0  0  0  0
   -5.5853   -3.2512   -0.9206 N   0  0  0  0  0  0  0  0  0  0  0  0
   -6.2852   -4.4990   -0.6000 C   0  0  2  0  0  0  0  0  0  0  0  0
   -6.8266   -5.1278   -1.8867 C   0  0  0  0  0  0  0  0  0  0  0  0
   -7.4003   -4.2744    0.3910 C   0  0  0  0  0  0  0  0  0  0  0  0
   -8.0753   -5.2685    0.7740 O   0  0  0  0  0  0  0  0  0  0  0  0
   -7.6550   -2.9777    0.9617 N   0  0  0  0  0  0  0  0  0  0  0  0
   -8.9778   -2.3367    0.9964 C   0  0  2  0  0  0  0  0  0  0  0  0
  -10.1054   -3.3289    1.3117 C   0  0  0  0  0  0  0  0  0  0  0  0
   -9.2327   -1.6227   -0.3070 C   0  0  0  0  0  0  0  0  0  0  0  0
   -9.0058   -2.2211   -1.3929 O   0  0  0  0  0  0  0  0  0  0  0  0
   -9.6901   -0.2645   -0.3445 N   0  0  0  0  0  0  0  0  0  0  0  0
  -10.7061    0.2609    0.5701 C   0  0  2  0  0  0  0  0  0  0  0  0
  -11.9553    0.6690   -0.2159 C   0  0  0  0  0  0  0  0  0  0  0  0
  -10.1451    1.4006    1.3771 C   0  0  0  0  0  0  0  0  0  0  0  0
   -9.5876    1.1587    2.4825 O   0  0  0  0  0  0  0  0  0  0  0  0
  -10.2938    2.7593    0.9568 N   0  0  0  0  0  0  0  0  0  0  0  0
   -9.4472    3.3417   -0.0845 C   0  0  1  0  0  0  0  0  0  0  0  0
  -10.3042    4.0668   -1.0848 C   0  0  0  0  0  0  0  0  0  0  0  0
  -11.1324    5.1604   -0.6890 N   0  0  0  0  0  0  0  0  0  0  0  0
  -10.2946    3.7050   -2.2915 O   0  0  0  0  0  0  0  0  0  0  0  0
   -8.4204    4.2939    0.5484 C   0  0  0  0  0  0  0  0  0  0  0  0
   -7.1056    3.3638    1.4224 S   0  0  0  0  0  0  0  0  0  0  0  0
   -6.0307    3.0817   -0.0302 C   0  0  0  0  0  0  0  0  0  0  0  0
   -1.2249    9.6193   -0.3865 H   0  0  0  0  0  0  0  0  0  0  0  0
   -0.3200   10.9104   -1.2615 H   0  0  0  0  0  0  0  0  0  0  0  0
    0.5646    9.8013   -0.1485 H   0  0  0  0  0  0  0  0  0  0  0  0
    0.1875    6.8912   -2.6488 H   0  0  0  0  0  0  0  0  0  0  0  0
    0.0492    7.5075    0.3146 H   0  0  0  0  0  0  0  0  0  0  0  0
   -2.0550    5.5779   -0.8172 H   0  0  0  0  0  0  0  0  0  0  0  0
   -2.2952    7.3062   -1.0792 H   0  0  0  0  0  0  0  0  0  0  0  0
   -0.8626    5.1596    2.0185 H   0  0  0  0  0  0  0  0  0  0  0  0
   -2.2965    5.2986    3.0752 H   0  0  0  0  0  0  0  0  0  0  0  0
   -4.5662    4.9998    1.1652 H   0  0  0  0  0  0  0  0  0  0  0  0
   -4.3281    0.9562   -0.2481 H   0  0  0  0  0  0  0  0  0  0  0  0
   -0.8691    2.8397    1.4916 H   0  0  0  0  0  0  0  0  0  0  0  0
   -1.4380    0.0862    1.4161 H   0  0  0  0  0  0  0  0  0  0  0  0
   -0.6285    0.8460    0.0319 H   0  0  0  0  0  0  0  0  0  0  0  0
   -3.9035   -1.4552    0.8293 H   0  0  0  0  0  0  0  0  0  0  0  0
   -2.2458   -1.9669    1.3201 H   0  0  0  0  0  0  0  0  0  0  0  0
   -2.1782   -3.6063   -0.5578 H   0  0  0  0  0  0  0  0  0  0  0  0
   -4.3083   -3.8498    1.5952 H   0  0  0  0  0  0  0  0  0  0  0  0
   -1.9829   -7.2672    0.9195 H   0  0  0  0  0  0  0  0  0  0  0  0
   -4.1261   -7.1281   -0.3091 H   0  0  0  0  0  0  0  0  0  0  0  0
   -3.4161   -5.8701   -1.4069 H   0  0  0  0  0  0  0  0  0  0  0  0
   -2.7289   -7.5305   -1.3664 H   0  0  0  0  0  0  0  0  0  0  0  0
   -0.8448   -5.8093   -1.2216 H   0  0  0  0  0  0  0  0  0  0  0  0
    2.1197   -6.7242    1.0915 H   0  0  0  0  0  0  0  0  0  0  0  0
    0.0109   -8.3684   -0.4548 H   0  0  0  0  0  0  0  0  0  0  0  0
    0.3790   -8.4729    1.3136 H   0  0  0  0  0  0  0  0  0  0  0  0
    1.6098   -8.9646    0.0941 H   0  0  0  0  0  0  0  0  0  0  0  0
    1.2880   -6.3934   -1.8192 H   0  0  0  0  0  0  0  0  0  0  0  0
    4.1552   -5.9173    0.3644 H   0  0  0  0  0  0  0  0  0  0  0  0
    5.2878   -8.6990   -0.3744 H   0  0  0  0  0  0  0  0  0  0  0  0
    3.8089   -8.5121    0.6316 H   0  0  0  0  0  0  0  0  0  0  0  0
    5.3364   -7.8535    1.2247 H   0  0  0  0  0  0  0  0  0  0  0  0
    5.5947   -6.1242   -2.1567 H   0  0  0  0  0  0  0  0  0  0  0  0
    6.1625   -5.6733    1.4968 H   0  0  0  0  0  0  0  0  0  0  0  0
    9.0331   -6.7336    1.0924 H   0  0  0  0  0  0  0  0  0  0  0  0
    8.0211   -6.8033    2.5847 H   0  0  0  0  0  0  0  0  0  0  0  0
    7.5939   -7.8088    1.1543 H   0  0  0  0  0  0  0  0  0  0  0  0
    8.3486   -4.3274    2.1539 H   0  0  0  0  0  0  0  0  0  0  0  0
    9.1735   -1.6844    0.8822 H   0  0  0  0  0  0  0  0  0  0  0  0
   11.2488   -2.8953   -0.0736 H   0  0  0  0  0  0  0  0  0  0  0  0
   10.2040   -4.3323   -0.3298 H   0  0  0  0  0  0  0  0  0  0  0  0
   10.4850   -3.6888    1.3404 H   0  0  0  0  0  0  0  0  0  0  0  0
    8.7404   -2.5673   -1.9901 H   0  0  0  0  0  0  0  0  0  0  0  0
    9.4298    0.3834    0.0729 H   0  0  0  0  0  0  0  0  0  0  0  0
   11.8573    1.0492    0.4942 H   0  0  0  0  0  0  0  0  0  0  0  0
   11.5297   -0.7068    0.6497 H   0  0  0  0  0  0  0  0  0  0  0  0
   12.3423   -0.0649   -0.8369 H   0  0  0  0  0  0  0  0  0  0  0  0
   10.8360    1.6554   -2.3113 H   0  0  0  0  0  0  0  0  0  0  0  0
    7.9966    2.0695    0.0026 H   0  0  0  0  0  0  0  0  0  0  0  0
    9.9440    3.8609    1.6111 H   0  0  0  0  0  0  0  0  0  0  0  0
    8.4975    3.0039    2.2679 H   0  0  0  0  0  0  0  0  0  0  0  0
    9.8985    2.0560    1.6622 H   0  0  0  0  0  0  0  0  0  0  0  0
    8.2307    4.9775   -0.5947 H   0  0  0  0  0  0  0  0  0  0  0  0
    6.4156    5.7345    2.1944 H   0  0  0  0  0  0  0  0  0  0  0  0
    7.8250    6.8619    0.5301 H   0  0  0  0  0  0  0  0  0  0  0  0
    6.3576    7.8170    0.7767 H   0  0  0  0  0  0  0  0  0  0  0  0
    6.4958    6.7927   -0.7062 H   0  0  0  0  0  0  0  0  0  0  0  0
    4.0937    4.8710    1.4515 H   0  0  0  0  0  0  0  0  0  0  0  0
    2.2111    7.7666   -0.2250 H   0  0  0  0  0  0  0  0  0  0  0  0
    2.8662    6.9638   -2.4862 H   0  0  0  0  0  0  0  0  0  0  0  0
    4.2658    6.0747   -1.7725 H   0  0  0  0  0  0  0  0  0  0  0  0
    4.1955    7.8819   -1.6859 H   0  0  0  0  0  0  0  0  0  0  0  0
    2.5399    4.7233   -0.3012 H   0  0  0  0  0  0  0  0  0  0  0  0
   -6.1490   -2.4781   -1.3386 H   0  0  0  0  0  0  0  0  0  0  0  0
   -5.5838   -5.2225   -0.1402 H   0  0  0  0  0  0  0  0  0  0  0  0
   -7.3057   -6.1073   -1.6670 H   0  0  0  0  0  0  0  0  0  0  0  0
   -5.9941   -5.3056   -2.6004 H   0  0  0  0  0  0  0  0  0  0  0  0
   -7.5734   -4.4583   -2.3653 H   0  0  0  0  0  0  0  0  0  0  0  0
   -6.8330   -2.3538    1.1323 H   0  0  0  0  0  0  0  0  0  0  0  0
   -8.9619   -1.5865    1.8151 H   0  0  0  0  0  0  0  0  0  0  0  0
  -11.0543   -2.7903    1.5115 H   0  0  0  0  0  0  0  0  0  0  0  0
  -10.2820   -4.0187    0.4600 H   0  0  0  0  0  0  0  0  0  0  0  0
   -9.8534   -3.9163    2.2200 H   0  0  0  0  0  0  0  0  0  0  0  0
   -9.4451    0.3042   -1.1850 H   0  0  0  0  0  0  0  0  0  0  0  0
  -11.0277   -0.5241    1.2829 H   0  0  0  0  0  0  0  0  0  0  0  0
  -12.7199    1.0940    0.4694 H   0  0  0  0  0  0  0  0  0  0  0  0
  -11.7042    1.4205   -0.9931 H   0  0  0  0  0  0  0  0  0  0  0  0
  -12.3872   -0.2229   -0.7176 H   0  0  0  0  0  0  0  0  0  0  0  0
  -10.8228    3.3993    1.5891 H   0  0  0  0  0  0  0  0  0  0  0  0
   -8.8976    2.5374   -0.6197 H   0  0  0  0  0  0  0  0  0  0  0  0
  -11.1642    5.4790    0.3043 H   0  0  0  0  0  0  0  0  0  0  0  0
  -11.7254    5.6523   -1.3940 H   0  0  0  0  0  0  0  0  0  0  0  0
   -8.9250    4.9446    1.2919 H   0  0  0  0  0  0  0  0  0  0  0  0
   -7.9806    4.9704   -0.2120 H   0  0  0  0  0  0  0  0  0  0  0  0
   -6.0987    3.9216   -0.7532 H   0  0  0  0  0  0  0  0  0  0  0  0
   -6.3591    2.1596   -0.5536 H   0  0  0  0  0  0  0  0  0  0  0  0
  1  2  1  0
  2  3  2  0
  2  4  1  0
  4  5  1  0
  5  6  1  0
  6  7  1  0
  7  8  1  0
  8  9  1  0
  9 10  1  0
 10 11  2  0
 11 12  1  0
 12 13  2  0
 13 14  1  0
 13 15  1  0
 15 16  1  0
 16 17  1  0
 17 18  1  0
 18 19  1  0
 19 20  1  0
 20 21  2  0
 20 22  1  0
 22 23  1  0
 22 24  1  0
 24 25  1  0
 25 26  2  0
 25 27  1  0
 27 28  1  0
 27 29  1  0
 29 30  1  0
 30 31  2  0
 30 32  1  0
 32 33  1  0
 32 34  1  0
 34 35  1  0
 35 36  2  0
 35 37  1  0
 37 38  1  0
 37 39  1  0
 39 40  1  0
 40 41  2  0
 40 42  1  0
 42 43  1  0
 42 44  1  0
 44 45  1  0
 45 46  2  0
 45 47  1  0
 47 48  1  0
 47 49  1  0
 49 50  1  0
 50 51  2  0
 50 52  1  0
 52 53  1  0
 52 54  1  0
 54 55  1  0
 55 56  2  0
 55 57  1  0
 57 58  1  0
 57 59  1  0
 59 60  1  0
 60 61  2  0
 60 62  1  0
 62 63  1  0
 62 64  1  0
 64 65  1  0
 65 66  2  0
 18 67  1  0
 67 68  2  0
 67 69  1  0
 69 70  1  0
 70 71  1  0
 70 72  1  0
 72 73  2  0
 72 74  1  0
 74 75  1  0
 75 76  1  0
 75 77  1  0
 77 78  2  0
 77 79  1  0
 79 80  1  0
 80 81  1  0
 80 82  1  0
 82 83  2  0
 82 84  1  0
 84 85  1  0
 85 86  1  0
 86 87  1  0
 86 88  2  0
 85 89  1  0
 89 90  1  0
 90 91  1  0
 65  5  1  0
 14  9  2  0
 91 11  1  0
  1 92  1  0
  1 93  1  0
  1 94  1  0
  4 95  1  0
  5 96  1  1
  6 97  1  0
  6 98  1  0
  8 99  1  0
  8100  1  0
 10101  1  0
 12102  1  0
 14103  1  0
 15104  1  0
 15105  1  0
 17106  1  0
 17107  1  0
 18108  1  6
 19109  1  0
 22110  1  1
 23111  1  0
 23112  1  0
 23113  1  0
 24114  1  0
 27115  1  1
 28116  1  0
 28117  1  0
 28118  1  0
 29119  1  0
 32120  1  1
 33121  1  0
 33122  1  0
 33123  1  0
 34124  1  0
 37125  1  1
 38126  1  0
 38127  1  0
 38128  1  0
 39129  1  0
 42130  1  1
 43131  1  0
 43132  1  0
 43133  1  0
 44134  1  0
 47135  1  1
 48136  1  0
 48137  1  0
 48138  1  0
 49139  1  0
 52140  1  1
 53141  1  0
 53142  1  0
 53143  1  0
 54144  1  0
 57145  1  1
 58146  1  0
 58147  1  0
 58148  1  0
 59149  1  0
 62150  1  1
 63151  1  0
 63152  1  0
 63153  1  0
 64154  1  0
 69155  1  0
 70156  1  1
 71157  1  0
 71158  1  0
 71159  1  0
 74160  1  0
 75161  1  1
 76162  1  0
 76163  1  0
 76164  1  0
 79165  1  0
 80166  1  1
 81167  1  0
 81168  1  0
 81169  1  0
 84170  1  0
 85171  1  6
 87172  1  0
 87173  1  0
 89174  1  0
 89175  1  0
 91176  1  0
 91177  1  0
M  END
