
     RDKit          3D

177179  0  0  0  0  0  0  0  0999 V2000
   -0.6155  -10.3522   -0.7470 C   0  0  0  0  0  0  0  0  0  0  0  0
   -1.1359   -9.1587   -1.5000 C   0  0  0  0  0  0  0  0  0  0  0  0
   -2.2338   -9.2509   -2.1120 O   0  0  0  0  0  0  0  0  0  0  0  0
   -0.4126   -7.9141   -1.5391 N   0  0  0  0  0  0  0  0  0  0  0  0
    0.6818   -7.5838   -0.6052 C   0  0  2  0  0  0  0  0  0  0  0  0
    0.1082   -7.1809    0.7748 C   0  0  0  0  0  0  0  0  0  0  0  0
   -0.3294   -5.4049    0.9582 S   0  0  0  0  0  0  0  0  0  0  0  0
   -1.7923   -5.3875   -0.1379 C   0  0  0  0  0  0  0  0  0  0  0  0
   -2.7784   -4.3465    0.3211 C   0  0  0  0  0  0  0  0  0  0  0  0
   -4.0783   -4.7229    0.6886 C   0  0  0  0  0  0  0  0  0  0  0  0
   -4.9954   -3.7672    1.1392 C   0  0  0  0  0  0  0  0  0  0  0  0
   -4.6114   -2.4206    1.2175 C   0  0  0  0  0  0  0  0  0  0  0  0
   -3.3364   -2.0146    0.7940 C   0  0  0  0  0  0  0  0  0  0  0  0
   -2.4172   -2.9879    0.3596 C   0  0  0  0  0  0  0  0  0  0  0  0
   -2.9356   -0.5599    0.8366 C   0  0  0  0  0  0  0  0  0  0  0  0
   -4.2590    0.5184    0.1604 S   0  0  0  0  0  0  0  0  0  0  0  0
   -3.1966    1.9211   -0.3476 C   0  0  0  0  0  0  0  0  0  0  0  0
   -3.7521    3.2716    0.1314 C   0  0  1  0  0  0  0  0  0  0  0  0
   -2.8441    4.3393   -0.2935 N   0  0  0  0  0  0  0  0  0  0  0  0
   -2.6686    5.5226    0.4849 C   0  0  0  0  0  0  0  0  0  0  0  0
   -3.5891    6.3857    0.5277 O   0  0  0  0  0  0  0  0  0  0  0  0
   -1.3736    5.7709    1.2033 C   0  0  1  0  0  0  0  0  0  0  0  0
   -1.0878    4.6542    2.2109 C   0  0  0  0  0  0  0  0  0  0  0  0
   -0.2772    5.8560    0.2343 N   0  0  0  0  0  0  0  0  0  0  0  0
    0.3627    7.0979   -0.0663 C   0  0  0  0  0  0  0  0  0  0  0  0
    0.0305    7.7307   -1.1066 O   0  0  0  0  0  0  0  0  0  0  0  0
    1.4656    7.6327    0.8031 C   0  0  1  0  0  0  0  0  0  0  0  0
    0.8993    8.2626    2.0816 C   0  0  0  0  0  0  0  0  0  0  0  0
    2.4257    6.5771    1.1346 N   0  0  0  0  0  0  0  0  0  0  0  0
    3.3835    6.1345    0.1640 C   0  0  0  0  0  0  0  0  0  0  0  0
    3.0139    5.3901   -0.7878 O   0  0  0  0  0  0  0  0  0  0  0  0
    4.8339    6.5287    0.2884 C   0  0  1  0  0  0  0  0  0  0  0  0
    4.9508    8.0500    0.3905 C   0  0  0  0  0  0  0  0  0  0  0  0
    5.4230    5.9002    1.4743 N   0  0  0  0  0  0  0  0  0  0  0  0
    6.5586    5.0152    1.4745 C   0  0  0  0  0  0  0  0  0  0  0  0
    6.7096    4.2448    2.4635 O   0  0  0  0  0  0  0  0  0  0  0  0
    7.5849    4.9873    0.3541 C   0  0  1  0  0  0  0  0  0  0  0  0
    8.2191    6.3684    0.1448 C   0  0  0  0  0  0  0  0  0  0  0  0
    8.6553    4.0236    0.6502 N   0  0  0  0  0  0  0  0  0  0  0  0
    9.4330    3.3676   -0.3639 C   0  0  0  0  0  0  0  0  0  0  0  0
   10.6444    3.1082   -0.1264 O   0  0  0  0  0  0  0  0  0  0  0  0
    8.8446    2.9705   -1.7007 C   0  0  1  0  0  0  0  0  0  0  0  0
    9.0733    4.0849   -2.7257 C   0  0  0  0  0  0  0  0  0  0  0  0
    9.4568    1.7215   -2.1709 N   0  0  0  0  0  0  0  0  0  0  0  0
    9.2669    0.4330   -1.5612 C   0  0  0  0  0  0  0  0  0  0  0  0
    9.8575   -0.5588   -2.0658 O   0  0  0  0  0  0  0  0  0  0  0  0
    8.3282    0.2067   -0.3886 C   0  0  1  0  0  0  0  0  0  0  0  0
    7.0168   -0.4435   -0.8406 C   0  0  0  0  0  0  0  0  0  0  0  0
    8.9911   -0.5497    0.6885 N   0  0  0  0  0  0  0  0  0  0  0  0
    9.6553   -1.8139    0.5435 C   0  0  0  0  0  0  0  0  0  0  0  0
   10.8501   -1.9111    0.9486 O   0  0  0  0  0  0  0  0  0  0  0  0
    8.9420   -3.0349   -0.0095 C   0  0  1  0  0  0  0  0  0  0  0  0
    9.8897   -4.2456   -0.0971 C   0  0  0  0  0  0  0  0  0  0  0  0
    7.7642   -3.3447    0.8222 N   0  0  0  0  0  0  0  0  0  0  0  0
    7.1065   -4.6216    0.8124 C   0  0  0  0  0  0  0  0  0  0  0  0
    7.3081   -5.4043    1.7796 O   0  0  0  0  0  0  0  0  0  0  0  0
    6.0688   -4.9856   -0.2271 C   0  0  1  0  0  0  0  0  0  0  0  0
    6.3131   -4.3299   -1.5849 C   0  0  0  0  0  0  0  0  0  0  0  0
    6.0384   -6.4422   -0.4056 N   0  0  0  0  0  0  0  0  0  0  0  0
    4.8900   -7.2991   -0.2815 C   0  0  0  0  0  0  0  0  0  0  0  0
    4.9447   -8.4379   -0.8293 O   0  0  0  0  0  0  0  0  0  0  0  0
    3.5966   -6.9234    0.4151 C   0  0  1  0  0  0  0  0  0  0  0  0
    3.7995   -6.2753    1.7966 C   0  0  0  0  0  0  0  0  0  0  0  0
    2.7799   -6.0773   -0.4627 N   0  0  0  0  0  0  0  0  0  0  0  0
    1.6091   -6.5214   -1.1735 C   0  0  0  0  0  0  0  0  0  0  0  0
    1.3232   -5.9610   -2.2627 O   0  0  0  0  0  0  0  0  0  0  0  0
   -5.1280    3.5554   -0.4100 C   0  0  0  0  0  0  0  0  0  0  0  0
   -5.2827    3.7387   -1.6464 O   0  0  0  0  0  0  0  0  0  0  0  0
   -6.2461    3.6554    0.4846 N   0  0  0  0  0  0  0  0  0  0  0  0
   -7.3593    4.5802    0.2438 C   0  0  2  0  0  0  0  0  0  0  0  0
   -7.2492    5.7656    1.2072 C   0  0  0  0  0  0  0  0  0  0  0  0
   -8.6690    3.8513    0.4078 C   0  0  0  0  0  0  0  0  0  0  0  0
   -9.1416    3.6814    1.5702 O   0  0  0  0  0  0  0  0  0  0  0  0
   -9.4308    3.3903   -0.7208 N   0  0  0  0  0  0  0  0  0  0  0  0
   -8.8272    2.9488   -1.9805 C   0  0  2  0  0  0  0  0  0  0  0  0
   -9.5374    3.6368   -3.1510 C   0  0  0  0  0  0  0  0  0  0  0  0
   -8.8640    1.4395   -2.0846 C   0  0  0  0  0  0  0  0  0  0  0  0
   -9.1689    0.8854   -3.1748 O   0  0  0  0  0  0  0  0  0  0  0  0
   -8.4067    0.6292   -0.9955 N   0  0  0  0  0  0  0  0  0  0  0  0
   -9.3021    0.2501    0.1028 C   0  0  2  0  0  0  0  0  0  0  0  0
   -8.4832    0.1628    1.3943 C   0  0  0  0  0  0  0  0  0  0  0  0
  -10.0345   -1.0261   -0.2590 C   0  0  0  0  0  0  0  0  0  0  0  0
  -10.6345   -1.0672   -1.3645 O   0  0  0  0  0  0  0  0  0  0  0  0
  -10.1187   -2.1506    0.6458 N   0  0  0  0  0  0  0  0  0  0  0  0
  -10.2628   -3.5726    0.2667 C   0  0  1  0  0  0  0  0  0  0  0  0
  -10.5648   -3.7929   -1.2016 C   0  0  0  0  0  0  0  0  0  0  0  0
  -11.9254   -3.8531   -1.6479 N   0  0  0  0  0  0  0  0  0  0  0  0
   -9.6355   -3.8398   -2.0521 O   0  0  0  0  0  0  0  0  0  0  0  0
   -9.0267   -4.3631    0.7375 C   0  0  0  0  0  0  0  0  0  0  0  0
   -7.4745   -3.6648    0.0493 S   0  0  0  0  0  0  0  0  0  0  0  0
   -6.4094   -4.1576    1.4501 C   0  0  0  0  0  0  0  0  0  0  0  0
    0.3644  -10.6582   -1.1686 H   0  0  0  0  0  0  0  0  0  0  0  0
   -0.4966  -10.1065    0.3315 H   0  0  0  0  0  0  0  0  0  0  0  0
   -1.3205  -11.2016   -0.8393 H   0  0  0  0  0  0  0  0  0  0  0  0
   -0.7940   -7.1694   -2.1628 H   0  0  0  0  0  0  0  0  0  0  0  0
    1.2902   -8.5023   -0.4819 H   0  0  0  0  0  0  0  0  0  0  0  0
   -0.7714   -7.8045    1.0311 H   0  0  0  0  0  0  0  0  0  0  0  0
    0.8735   -7.4018    1.5467 H   0  0  0  0  0  0  0  0  0  0  0  0
   -2.2715   -6.3937   -0.1447 H   0  0  0  0  0  0  0  0  0  0  0  0
   -1.4709   -5.1489   -1.1739 H   0  0  0  0  0  0  0  0  0  0  0  0
   -4.3819   -5.7577    0.6128 H   0  0  0  0  0  0  0  0  0  0  0  0
   -5.3165   -1.6874    1.5807 H   0  0  0  0  0  0  0  0  0  0  0  0
   -1.4173   -2.6918    0.0615 H   0  0  0  0  0  0  0  0  0  0  0  0
   -2.7225   -0.2640    1.8866 H   0  0  0  0  0  0  0  0  0  0  0  0
   -2.0102   -0.4178    0.2409 H   0  0  0  0  0  0  0  0  0  0  0  0
   -3.1172    1.9119   -1.4605 H   0  0  0  0  0  0  0  0  0  0  0  0
   -2.1674    1.8185    0.0632 H   0  0  0  0  0  0  0  0  0  0  0  0
   -3.7863    3.2485    1.2462 H   0  0  0  0  0  0  0  0  0  0  0  0
   -2.2735    4.2313   -1.1670 H   0  0  0  0  0  0  0  0  0  0  0  0
   -1.4629    6.7275    1.7612 H   0  0  0  0  0  0  0  0  0  0  0  0
   -0.9643    3.6761    1.6948 H   0  0  0  0  0  0  0  0  0  0  0  0
   -1.9217    4.5770    2.9395 H   0  0  0  0  0  0  0  0  0  0  0  0
   -0.1548    4.8850    2.7661 H   0  0  0  0  0  0  0  0  0  0  0  0
   -0.0949    5.0493   -0.4043 H   0  0  0  0  0  0  0  0  0  0  0  0
    1.9977    8.4410    0.2476 H   0  0  0  0  0  0  0  0  0  0  0  0
    0.1049    8.9962    1.8379 H   0  0  0  0  0  0  0  0  0  0  0  0
    0.4933    7.4861    2.7617 H   0  0  0  0  0  0  0  0  0  0  0  0
    1.7139    8.7947    2.6216 H   0  0  0  0  0  0  0  0  0  0  0  0
    2.5882    6.3156    2.1346 H   0  0  0  0  0  0  0  0  0  0  0  0
    5.3584    6.1971   -0.6295 H   0  0  0  0  0  0  0  0  0  0  0  0
    4.3973    8.4354    1.2751 H   0  0  0  0  0  0  0  0  0  0  0  0
    6.0128    8.3536    0.4990 H   0  0  0  0  0  0  0  0  0  0  0  0
    4.5419    8.5296   -0.5263 H   0  0  0  0  0  0  0  0  0  0  0  0
    4.9510    6.0668    2.3929 H   0  0  0  0  0  0  0  0  0  0  0  0
    7.0607    4.6877   -0.5748 H   0  0  0  0  0  0  0  0  0  0  0  0
    8.4162    6.8722    1.1178 H   0  0  0  0  0  0  0  0  0  0  0  0
    7.5669    7.0099   -0.4813 H   0  0  0  0  0  0  0  0  0  0  0  0
    9.1850    6.2791   -0.4009 H   0  0  0  0  0  0  0  0  0  0  0  0
    9.0852    4.0684    1.6021 H   0  0  0  0  0  0  0  0  0  0  0  0
    7.7504    2.8040   -1.6086 H   0  0  0  0  0  0  0  0  0  0  0  0
   10.1429    4.3907   -2.7531 H   0  0  0  0  0  0  0  0  0  0  0  0
    8.4537    4.9726   -2.4885 H   0  0  0  0  0  0  0  0  0  0  0  0
    8.7826    3.7306   -3.7392 H   0  0  0  0  0  0  0  0  0  0  0  0
   10.0991    1.7585   -2.9948 H   0  0  0  0  0  0  0  0  0  0  0  0
    8.0392    1.1830    0.0512 H   0  0  0  0  0  0  0  0  0  0  0  0
    7.1934   -1.1994   -1.6296 H   0  0  0  0  0  0  0  0  0  0  0  0
    6.3521    0.3352   -1.2810 H   0  0  0  0  0  0  0  0  0  0  0  0
    6.4911   -0.9034    0.0225 H   0  0  0  0  0  0  0  0  0  0  0  0
    9.2324   -0.0016    1.5457 H   0  0  0  0  0  0  0  0  0  0  0  0
    8.6162   -2.8033   -1.0400 H   0  0  0  0  0  0  0  0  0  0  0  0
   10.2134   -4.5583    0.9172 H   0  0  0  0  0  0  0  0  0  0  0  0
   10.7852   -3.9908   -0.7054 H   0  0  0  0  0  0  0  0  0  0  0  0
    9.3858   -5.1003   -0.5931 H   0  0  0  0  0  0  0  0  0  0  0  0
    7.5309   -2.7174    1.6221 H   0  0  0  0  0  0  0  0  0  0  0  0
    5.1068   -4.6048    0.1323 H   0  0  0  0  0  0  0  0  0  0  0  0
    6.2093   -3.2324   -1.4943 H   0  0  0  0  0  0  0  0  0  0  0  0
    5.5478   -4.6805   -2.3103 H   0  0  0  0  0  0  0  0  0  0  0  0
    7.3195   -4.5871   -1.9800 H   0  0  0  0  0  0  0  0  0  0  0  0
    6.9146   -6.8860   -0.7620 H   0  0  0  0  0  0  0  0  0  0  0  0
    3.0703   -7.8776    0.6200 H   0  0  0  0  0  0  0  0  0  0  0  0
    4.7522   -6.6086    2.2566 H   0  0  0  0  0  0  0  0  0  0  0  0
    2.9763   -6.5780    2.4757 H   0  0  0  0  0  0  0  0  0  0  0  0
    3.7740   -5.1730    1.7504 H   0  0  0  0  0  0  0  0  0  0  0  0
    3.1578   -5.1423   -0.7362 H   0  0  0  0  0  0  0  0  0  0  0  0
   -6.1457    3.2636    1.4469 H   0  0  0  0  0  0  0  0  0  0  0  0
   -7.3040    5.0009   -0.7784 H   0  0  0  0  0  0  0  0  0  0  0  0
   -6.3187    6.3334    1.0037 H   0  0  0  0  0  0  0  0  0  0  0  0
   -8.1146    6.4577    1.0773 H   0  0  0  0  0  0  0  0  0  0  0  0
   -7.2287    5.4210    2.2607 H   0  0  0  0  0  0  0  0  0  0  0  0
  -10.4520    3.2131   -0.5831 H   0  0  0  0  0  0  0  0  0  0  0  0
   -7.7607    3.2374   -2.0288 H   0  0  0  0  0  0  0  0  0  0  0  0
   -9.4915    4.7398   -3.0238 H   0  0  0  0  0  0  0  0  0  0  0  0
  -10.6002    3.3253   -3.2087 H   0  0  0  0  0  0  0  0  0  0  0  0
   -9.0332    3.3856   -4.1076 H   0  0  0  0  0  0  0  0  0  0  0  0
   -7.5644    0.0372   -1.1632 H   0  0  0  0  0  0  0  0  0  0  0  0
  -10.0692    1.0367    0.2482 H   0  0  0  0  0  0  0  0  0  0  0  0
   -9.1555    0.0675    2.2767 H   0  0  0  0  0  0  0  0  0  0  0  0
   -7.7837   -0.7004    1.3635 H   0  0  0  0  0  0  0  0  0  0  0  0
   -7.8903    1.0893    1.5239 H   0  0  0  0  0  0  0  0  0  0  0  0
   -9.9248   -1.9807    1.6544 H   0  0  0  0  0  0  0  0  0  0  0  0
  -11.1281   -3.9758    0.8422 H   0  0  0  0  0  0  0  0  0  0  0  0
  -12.1405   -4.0192   -2.6613 H   0  0  0  0  0  0  0  0  0  0  0  0
  -12.7164   -3.8019   -0.9716 H   0  0  0  0  0  0  0  0  0  0  0  0
   -8.9998   -4.3247    1.8496 H   0  0  0  0  0  0  0  0  0  0  0  0
   -9.1141   -5.4319    0.4385 H   0  0  0  0  0  0  0  0  0  0  0  0
   -6.4976   -5.2506    1.6294 H   0  0  0  0  0  0  0  0  0  0  0  0
   -6.7430   -3.6313    2.3738 H   0  0  0  0  0  0  0  0  0  0  0  0
  1  2  1  0
  2  3  2  0
  2  4  1  0
  4  5  1  0
  5  6  1  0
  6  7  1  0
  7  8  1  0
  8  9  1  0
  9 10  1  0
 10 11  2  0
 11 12  1  0
 12 13  2  0
 13 14  1  0
 13 15  1  0
 15 16  1  0
 16 17  1  0
 17 18  1  0
 18 19  1  0
 19 20  1  0
 20 21  2  0
 20 22  1  0
 22 23  1  0
 22 24  1  0
 24 25  1  0
 25 26  2  0
 25 27  1  0
 27 28  1  0
 27 29  1  0
 29 30  1  0
 30 31  2  0
 30 32  1  0
 32 33  1  0
 32 34  1  0
 34 35  1  0
 35 36  2  0
 35 37  1  0
 37 38  1  0
 37 39  1  0
 39 40  1  0
 40 41  2  0
 40 42  1  0
 42 43  1  0
 42 44  1  0
 44 45  1  0
 45 46  2  0
 45 47  1  0
 47 48  1  0
 47 49  1  0
 49 50  1  0
 50 51  2  0
 50 52  1  0
 52 53  1  0
 52 54  1  0
 54 55  1  0
 55 56  2  0
 55 57  1  0
 57 58  1  0
 57 59  1  0
 59 60  1  0
 60 61  2  0
 60 62  1  0
 62 63  1  0
 62 64  1  0
 64 65  1  0
 65 66  2  0
 18 67  1  0
 67 68  2  0
 67 69  1  0
 69 70  1  0
 70 71  1  0
 70 72  1  0
 72 73  2  0
 72 74  1  0
 74 75  1  0
 75 76  1  0
 75 77  1  0
 77 78  2  0
 77 79  1  0
 79 80  1  0
 80 81  1  0
 80 82  1  0
 82 83  2  0
 82 84  1  0
 84 85  1  0
 85 86  1  0
 86 87  1  0
 86 88  2  0
 85 89  1  0
 89 90  1  0
 90 91  1  0
 65  5  1  0
 14  9  2  0
 91 11  1  0
  1 92  1  0
  1 93  1  0
  1 94  1  0
  4 95  1  0
  5 96  1  1
  6 97  1  0
  6 98  1  0
  8 99  1  0
  8100  1  0
 10101  1  0
 12102  1  0
 14103  1  0
 15104  1  0
 15105  1  0
 17106  1  0
 17107  1  0
 18108  1  1
 19109  1  0
 22110  1  1
 23111  1  0
 23112  1  0
 23113  1  0
 24114  1  0
 27115  1  6
 28116  1  0
 28117  1  0
 28118  1  0
 29119  1  0
 32120  1  6
 33121  1  0
 33122  1  0
 33123  1  0
 34124  1  0
 37125  1  6
 38126  1  0
 38127  1  0
 38128  1  0
 39129  1  0
 42130  1  1
 43131  1  0
 43132  1  0
 43133  1  0
 44134  1  0
 47135  1  1
 48136  1  0
 48137  1  0
 48138  1  0
 49139  1  0
 52140  1  6
 53141  1  0
 53142  1  0
 53143  1  0
 54144  1  0
 57145  1  1
 58146  1  0
 58147  1  0
 58148  1  0
 59149  1  0
 62150  1  1
 63151  1  0
 63152  1  0
 63153  1  0
 64154  1  0
 69155  1  0
 70156  1  6
 71157  1  0
 71158  1  0
 71159  1  0
 74160  1  0
 75161  1  1
 76162  1  0
 76163  1  0
 76164  1  0
 79165  1  0
 80166  1  1
 81167  1  0
 81168  1  0
 81169  1  0
 84170  1  0
 85171  1  1
 87172  1  0
 87173  1  0
 89174  1  0
 89175  1  0
 91176  1  0
 91177  1  0
M  END
