
     RDKit          3D

207209  0  0  0  0  0  0  0  0999 V2000
    0.7879    9.4018    0.7493 C   0  0  0  0  0  0  0  0  0  0  0  0
    1.2254    8.1454    0.0653 C   0  0  0  0  0  0  0  0  0  0  0  0
    0.6672    7.7950   -1.0221 O   0  0  0  0  0  0  0  0  0  0  0  0
    2.2569    7.3289    0.6562 N   0  0  0  0  0  0  0  0  0  0  0  0
    2.6351    5.9910    0.1678 C   0  0  1  0  0  0  0  0  0  0  0  0
    1.4995    4.9944    0.4792 C   0  0  0  0  0  0  0  0  0  0  0  0
    1.4294    4.6634    2.2871 S   0  0  0  0  0  0  0  0  0  0  0  0
   -0.3742    4.3823    2.4421 C   0  0  0  0  0  0  0  0  0  0  0  0
   -0.9611    3.5362    1.3433 C   0  0  0  0  0  0  0  0  0  0  0  0
   -0.5105    2.2298    1.1175 C   0  0  0  0  0  0  0  0  0  0  0  0
   -1.0723    1.4360    0.0945 C   0  0  0  0  0  0  0  0  0  0  0  0
   -2.0845    1.9861   -0.7108 C   0  0  0  0  0  0  0  0  0  0  0  0
   -2.5977    3.2706   -0.4552 C   0  0  0  0  0  0  0  0  0  0  0  0
   -2.0155    4.0446    0.5642 C   0  0  0  0  0  0  0  0  0  0  0  0
   -3.7632    3.7408   -1.3028 C   0  0  0  0  0  0  0  0  0  0  0  0
   -4.4617    5.3852   -0.8793 S   0  0  0  0  0  0  0  0  0  0  0  0
   -5.4138    4.8888    0.6074 C   0  0  0  0  0  0  0  0  0  0  0  0
   -6.9237    5.1412    0.4482 C   0  0  1  0  0  0  0  0  0  0  0  0
   -7.1809    6.5730    0.0375 C   0  0  0  0  0  0  0  0  0  0  0  0
   -7.3091    6.9422   -1.3419 N   0  0  0  0  0  0  0  0  0  0  0  0
   -7.2857    7.4680    0.9292 O   0  0  0  0  0  0  0  0  0  0  0  0
   -7.5173    4.1970   -0.5136 N   0  0  0  0  0  0  0  0  0  0  0  0
   -8.9134    4.1264   -0.8673 C   0  0  0  0  0  0  0  0  0  0  0  0
   -9.2489    3.4731   -1.8993 O   0  0  0  0  0  0  0  0  0  0  0  0
  -10.0011    4.7800   -0.0463 C   0  0  1  0  0  0  0  0  0  0  0  0
  -10.7815    5.7834   -0.9166 C   0  0  0  0  0  0  0  0  0  0  0  0
  -10.9226    3.7626    0.4725 N   0  0  0  0  0  0  0  0  0  0  0  0
  -10.4792    2.5318    1.0593 C   0  0  0  0  0  0  0  0  0  0  0  0
   -9.4250    2.5210    1.7443 O   0  0  0  0  0  0  0  0  0  0  0  0
  -11.1706    1.2222    0.7406 C   0  0  1  0  0  0  0  0  0  0  0  0
  -12.6702    1.4479    0.4834 C   0  0  0  0  0  0  0  0  0  0  0  0
  -10.5244    0.6241   -0.4355 N   0  0  0  0  0  0  0  0  0  0  0  0
  -10.7574   -0.6891   -0.9767 C   0  0  0  0  0  0  0  0  0  0  0  0
  -10.1821   -0.9970   -2.0564 O   0  0  0  0  0  0  0  0  0  0  0  0
  -11.6943   -1.7021   -0.3524 C   0  0  1  0  0  0  0  0  0  0  0  0
  -12.9380   -1.8337   -1.2463 C   0  0  0  0  0  0  0  0  0  0  0  0
  -11.0333   -2.9999   -0.2316 N   0  0  0  0  0  0  0  0  0  0  0  0
  -11.6842   -4.1475    0.3290 C   0  0  0  0  0  0  0  0  0  0  0  0
  -12.6041   -3.9901    1.1708 O   0  0  0  0  0  0  0  0  0  0  0  0
  -11.2433   -5.5492   -0.0399 C   0  0  1  0  0  0  0  0  0  0  0  0
  -10.8821   -5.6682   -1.5204 C   0  0  0  0  0  0  0  0  0  0  0  0
  -10.1394   -6.0365    0.7958 N   0  0  0  0  0  0  0  0  0  0  0  0
   -8.9434   -5.2778    1.0314 C   0  0  0  0  0  0  0  0  0  0  0  0
   -9.0277   -4.1364    1.5652 O   0  0  0  0  0  0  0  0  0  0  0  0
   -7.5623   -5.8317    0.7232 C   0  0  1  0  0  0  0  0  0  0  0  0
   -7.5812   -7.3083    0.3127 C   0  0  0  0  0  0  0  0  0  0  0  0
   -6.9127   -5.0381   -0.3260 N   0  0  0  0  0  0  0  0  0  0  0  0
   -6.7943   -3.6058   -0.2753 C   0  0  0  0  0  0  0  0  0  0  0  0
   -7.4989   -2.9146   -1.0581 O   0  0  0  0  0  0  0  0  0  0  0  0
   -5.7352   -2.9030    0.5442 C   0  0  1  0  0  0  0  0  0  0  0  0
   -5.6099   -3.4044    1.9855 C   0  0  0  0  0  0  0  0  0  0  0  0
   -4.4458   -2.9174   -0.1573 N   0  0  0  0  0  0  0  0  0  0  0  0
   -3.4883   -3.9740   -0.0303 C   0  0  0  0  0  0  0  0  0  0  0  0
   -3.8840   -5.1706   -0.0717 O   0  0  0  0  0  0  0  0  0  0  0  0
   -2.0074   -3.6941    0.1478 C   0  0  1  0  0  0  0  0  0  0  0  0
   -1.7015   -2.2398    0.5650 C   0  0  0  0  0  0  0  0  0  0  0  0
   -1.6321   -1.1316   -0.8932 S   0  0  0  0  0  0  0  0  0  0  0  0
   -0.4343    0.1103   -0.2539 C   0  0  0  0  0  0  0  0  0  0  0  0
   -1.4776   -4.6038    1.1652 N   0  0  0  0  0  0  0  0  0  0  0  0
   -0.2132   -5.2736    1.0643 C   0  0  0  0  0  0  0  0  0  0  0  0
   -0.0846   -6.3891    1.6453 O   0  0  0  0  0  0  0  0  0  0  0  0
    0.9988   -4.6248    0.4261 C   0  0  1  0  0  0  0  0  0  0  0  0
    1.8660   -3.9743    1.5041 C   0  0  0  0  0  0  0  0  0  0  0  0
    1.7861   -5.6278   -0.3053 N   0  0  0  0  0  0  0  0  0  0  0  0
    2.8214   -5.2523   -1.2306 C   0  0  0  0  0  0  0  0  0  0  0  0
    2.7987   -4.1170   -1.7743 O   0  0  0  0  0  0  0  0  0  0  0  0
    3.9279   -6.2197   -1.5620 C   0  0  1  0  0  0  0  0  0  0  0  0
    3.6589   -6.9206   -2.8960 C   0  0  0  0  0  0  0  0  0  0  0  0
    5.2114   -5.5143   -1.6031 N   0  0  0  0  0  0  0  0  0  0  0  0
    5.9759   -5.2007   -0.4320 C   0  0  0  0  0  0  0  0  0  0  0  0
    6.4276   -4.0289   -0.3153 O   0  0  0  0  0  0  0  0  0  0  0  0
    6.2191   -6.2366    0.6600 C   0  0  1  0  0  0  0  0  0  0  0  0
    6.6893   -7.5804    0.0835 C   0  0  0  0  0  0  0  0  0  0  0  0
    7.1432   -5.7964    1.7220 N   0  0  0  0  0  0  0  0  0  0  0  0
    8.2116   -4.8477    1.5908 C   0  0  0  0  0  0  0  0  0  0  0  0
    8.0259   -3.6699    1.9946 O   0  0  0  0  0  0  0  0  0  0  0  0
    9.5651   -5.2262    1.0388 C   0  0  1  0  0  0  0  0  0  0  0  0
    9.9899   -6.6376    1.4587 C   0  0  0  0  0  0  0  0  0  0  0  0
    9.5505   -5.0954   -0.4252 N   0  0  0  0  0  0  0  0  0  0  0  0
   10.4514   -4.3087   -1.2288 C   0  0  0  0  0  0  0  0  0  0  0  0
   10.2906   -4.3175   -2.4809 O   0  0  0  0  0  0  0  0  0  0  0  0
   11.6042   -3.5220   -0.6509 C   0  0  1  0  0  0  0  0  0  0  0  0
   12.7968   -4.4538   -0.3939 C   0  0  0  0  0  0  0  0  0  0  0  0
   12.0187   -2.4533   -1.5783 N   0  0  0  0  0  0  0  0  0  0  0  0
   12.0258   -1.0468   -1.2601 C   0  0  0  0  0  0  0  0  0  0  0  0
   12.7512   -0.2705   -1.9381 O   0  0  0  0  0  0  0  0  0  0  0  0
   11.1720   -0.4615   -0.1517 C   0  0  1  0  0  0  0  0  0  0  0  0
   11.9830   -0.3303    1.1533 C   0  0  0  0  0  0  0  0  0  0  0  0
   10.5669    0.8131   -0.5662 N   0  0  0  0  0  0  0  0  0  0  0  0
   11.1438    2.1032   -0.2971 C   0  0  0  0  0  0  0  0  0  0  0  0
   12.3820    2.2779   -0.4462 O   0  0  0  0  0  0  0  0  0  0  0  0
   10.2703    3.2452    0.1547 C   0  0  1  0  0  0  0  0  0  0  0  0
   10.7345    3.7027    1.5460 C   0  0  0  0  0  0  0  0  0  0  0  0
   10.3220    4.3599   -0.8000 N   0  0  0  0  0  0  0  0  0  0  0  0
    9.4479    5.5051   -0.8158 C   0  0  0  0  0  0  0  0  0  0  0  0
    9.7362    6.4668   -1.5809 O   0  0  0  0  0  0  0  0  0  0  0  0
    8.2229    5.6179    0.0697 C   0  0  1  0  0  0  0  0  0  0  0  0
    8.3555    6.8042    1.0363 C   0  0  0  0  0  0  0  0  0  0  0  0
    6.9867    5.7251   -0.7236 N   0  0  0  0  0  0  0  0  0  0  0  0
    6.5044    6.9454   -1.3015 C   0  0  0  0  0  0  0  0  0  0  0  0
    7.2401    7.5935   -2.0985 O   0  0  0  0  0  0  0  0  0  0  0  0
    5.1243    7.4448   -0.9648 C   0  0  1  0  0  0  0  0  0  0  0  0
    5.0128    8.9655   -1.1315 C   0  0  0  0  0  0  0  0  0  0  0  0
    4.1244    6.7775   -1.8101 N   0  0  0  0  0  0  0  0  0  0  0  0
    3.0051    6.0241   -1.3064 C   0  0  0  0  0  0  0  0  0  0  0  0
    2.3209    5.3602   -2.1247 O   0  0  0  0  0  0  0  0  0  0  0  0
    0.0370    9.9452    0.1396 H   0  0  0  0  0  0  0  0  0  0  0  0
    1.6587   10.0761    0.8911 H   0  0  0  0  0  0  0  0  0  0  0  0
    0.3617    9.1497    1.7451 H   0  0  0  0  0  0  0  0  0  0  0  0
    2.7824    7.7132    1.4749 H   0  0  0  0  0  0  0  0  0  0  0  0
    3.5340    5.6373    0.7199 H   0  0  0  0  0  0  0  0  0  0  0  0
    0.5355    5.3992    0.1047 H   0  0  0  0  0  0  0  0  0  0  0  0
    1.6847    4.0151   -0.0238 H   0  0  0  0  0  0  0  0  0  0  0  0
   -0.8731    5.3779    2.4808 H   0  0  0  0  0  0  0  0  0  0  0  0
   -0.5860    3.8891    3.4153 H   0  0  0  0  0  0  0  0  0  0  0  0
    0.2977    1.8350    1.7180 H   0  0  0  0  0  0  0  0  0  0  0  0
   -2.4982    1.4154   -1.5362 H   0  0  0  0  0  0  0  0  0  0  0  0
   -2.3871    5.0327    0.7687 H   0  0  0  0  0  0  0  0  0  0  0  0
   -3.4254    3.7863   -2.3568 H   0  0  0  0  0  0  0  0  0  0  0  0
   -4.5707    2.9754   -1.2468 H   0  0  0  0  0  0  0  0  0  0  0  0
   -5.0305    5.4777    1.4656 H   0  0  0  0  0  0  0  0  0  0  0  0
   -5.2285    3.8214    0.8662 H   0  0  0  0  0  0  0  0  0  0  0  0
   -7.3780    4.9348    1.4440 H   0  0  0  0  0  0  0  0  0  0  0  0
   -7.3718    7.9527   -1.6058 H   0  0  0  0  0  0  0  0  0  0  0  0
   -7.1880    6.2240   -2.0944 H   0  0  0  0  0  0  0  0  0  0  0  0
   -6.8750    3.5441   -1.0365 H   0  0  0  0  0  0  0  0  0  0  0  0
   -9.5790    5.3478    0.8142 H   0  0  0  0  0  0  0  0  0  0  0  0
  -10.1025    6.5692   -1.2989 H   0  0  0  0  0  0  0  0  0  0  0  0
  -11.2561    5.2426   -1.7793 H   0  0  0  0  0  0  0  0  0  0  0  0
  -11.5797    6.2754   -0.3203 H   0  0  0  0  0  0  0  0  0  0  0  0
  -11.9474    3.9855    0.5089 H   0  0  0  0  0  0  0  0  0  0  0  0
  -11.0482    0.5397    1.6168 H   0  0  0  0  0  0  0  0  0  0  0  0
  -13.1103    2.0632    1.2969 H   0  0  0  0  0  0  0  0  0  0  0  0
  -12.8362    1.9622   -0.4843 H   0  0  0  0  0  0  0  0  0  0  0  0
  -13.2264    0.4899    0.4736 H   0  0  0  0  0  0  0  0  0  0  0  0
   -9.7531    1.1622   -0.8969 H   0  0  0  0  0  0  0  0  0  0  0  0
  -11.9978   -1.3744    0.6568 H   0  0  0  0  0  0  0  0  0  0  0  0
  -13.7145   -2.4536   -0.7431 H   0  0  0  0  0  0  0  0  0  0  0  0
  -13.3800   -0.8407   -1.4676 H   0  0  0  0  0  0  0  0  0  0  0  0
  -12.6694   -2.3212   -2.2044 H   0  0  0  0  0  0  0  0  0  0  0  0
  -10.0598   -3.1027   -0.5919 H   0  0  0  0  0  0  0  0  0  0  0  0
  -12.1234   -6.2206    0.1201 H   0  0  0  0  0  0  0  0  0  0  0  0
  -10.7008   -6.7333   -1.7803 H   0  0  0  0  0  0  0  0  0  0  0  0
  -11.7157   -5.2874   -2.1612 H   0  0  0  0  0  0  0  0  0  0  0  0
   -9.9574   -5.0935   -1.7576 H   0  0  0  0  0  0  0  0  0  0  0  0
  -10.1426   -7.0593    1.0093 H   0  0  0  0  0  0  0  0  0  0  0  0
   -6.9606   -5.7776    1.6495 H   0  0  0  0  0  0  0  0  0  0  0  0
   -8.1868   -7.4538   -0.6135 H   0  0  0  0  0  0  0  0  0  0  0  0
   -6.5471   -7.6618    0.1017 H   0  0  0  0  0  0  0  0  0  0  0  0
   -7.9968   -7.9447    1.1226 H   0  0  0  0  0  0  0  0  0  0  0  0
   -6.8732   -5.4462   -1.2909 H   0  0  0  0  0  0  0  0  0  0  0  0
   -6.0474   -1.8360    0.6335 H   0  0  0  0  0  0  0  0  0  0  0  0
   -5.2353   -4.4437    2.0333 H   0  0  0  0  0  0  0  0  0  0  0  0
   -4.8931   -2.7651    2.5432 H   0  0  0  0  0  0  0  0  0  0  0  0
   -6.5944   -3.3450    2.5028 H   0  0  0  0  0  0  0  0  0  0  0  0
   -4.2853   -2.1986   -0.9103 H   0  0  0  0  0  0  0  0  0  0  0  0
   -1.5204   -3.9003   -0.8258 H   0  0  0  0  0  0  0  0  0  0  0  0
   -0.7148   -2.2300    1.0751 H   0  0  0  0  0  0  0  0  0  0  0  0
   -2.4516   -1.8623    1.2976 H   0  0  0  0  0  0  0  0  0  0  0  0
    0.3097    0.2939   -1.0575 H   0  0  0  0  0  0  0  0  0  0  0  0
    0.1342   -0.2857    0.6179 H   0  0  0  0  0  0  0  0  0  0  0  0
   -2.0729   -4.8217    1.9945 H   0  0  0  0  0  0  0  0  0  0  0  0
    0.6753   -3.8416   -0.2882 H   0  0  0  0  0  0  0  0  0  0  0  0
    2.2286   -4.7323    2.2270 H   0  0  0  0  0  0  0  0  0  0  0  0
    2.7442   -3.4703    1.0497 H   0  0  0  0  0  0  0  0  0  0  0  0
    1.2838   -3.2078    2.0546 H   0  0  0  0  0  0  0  0  0  0  0  0
    1.8077   -6.6102    0.0493 H   0  0  0  0  0  0  0  0  0  0  0  0
    3.9516   -6.9967   -0.7762 H   0  0  0  0  0  0  0  0  0  0  0  0
    2.6808   -7.4458   -2.8589 H   0  0  0  0  0  0  0  0  0  0  0  0
    3.6483   -6.1889   -3.7343 H   0  0  0  0  0  0  0  0  0  0  0  0
    4.4540   -7.6829   -3.0703 H   0  0  0  0  0  0  0  0  0  0  0  0
    5.3887   -4.9083   -2.4478 H   0  0  0  0  0  0  0  0  0  0  0  0
    5.2333   -6.4189    1.1497 H   0  0  0  0  0  0  0  0  0  0  0  0
    5.9053   -8.0451   -0.5441 H   0  0  0  0  0  0  0  0  0  0  0  0
    7.5946   -7.4625   -0.5388 H   0  0  0  0  0  0  0  0  0  0  0  0
    6.9109   -8.2880    0.9081 H   0  0  0  0  0  0  0  0  0  0  0  0
    6.9904   -6.1970    2.6734 H   0  0  0  0  0  0  0  0  0  0  0  0
   10.3035   -4.5367    1.4834 H   0  0  0  0  0  0  0  0  0  0  0  0
   10.0351   -6.6960    2.5709 H   0  0  0  0  0  0  0  0  0  0  0  0
    9.2769   -7.4016    1.0920 H   0  0  0  0  0  0  0  0  0  0  0  0
   10.9937   -6.8694    1.0454 H   0  0  0  0  0  0  0  0  0  0  0  0
    8.8536   -5.6611   -0.9524 H   0  0  0  0  0  0  0  0  0  0  0  0
   11.3165   -3.0805    0.3093 H   0  0  0  0  0  0  0  0  0  0  0  0
   12.5665   -5.1466    0.4478 H   0  0  0  0  0  0  0  0  0  0  0  0
   13.0419   -5.0471   -1.3040 H   0  0  0  0  0  0  0  0  0  0  0  0
   13.6846   -3.8557   -0.1065 H   0  0  0  0  0  0  0  0  0  0  0  0
   12.4462   -2.7379   -2.4918 H   0  0  0  0  0  0  0  0  0  0  0  0
   10.3283   -1.1499    0.0518 H   0  0  0  0  0  0  0  0  0  0  0  0
   12.9485    0.1961    0.9844 H   0  0  0  0  0  0  0  0  0  0  0  0
   11.3994    0.2291    1.9166 H   0  0  0  0  0  0  0  0  0  0  0  0
   12.2075   -1.3372    1.5630 H   0  0  0  0  0  0  0  0  0  0  0  0
    9.6007    0.7816   -0.9656 H   0  0  0  0  0  0  0  0  0  0  0  0
    9.2279    2.8669    0.2341 H   0  0  0  0  0  0  0  0  0  0  0  0
   11.7845    4.0561    1.5186 H   0  0  0  0  0  0  0  0  0  0  0  0
   10.6573    2.8649    2.2696 H   0  0  0  0  0  0  0  0  0  0  0  0
   10.1067    4.5260    1.9335 H   0  0  0  0  0  0  0  0  0  0  0  0
   11.0711    4.3591   -1.5326 H   0  0  0  0  0  0  0  0  0  0  0  0
    8.1243    4.7130    0.6995 H   0  0  0  0  0  0  0  0  0  0  0  0
    9.2723    6.6985    1.6538 H   0  0  0  0  0  0  0  0  0  0  0  0
    7.4803    6.8220    1.7248 H   0  0  0  0  0  0  0  0  0  0  0  0
    8.4139    7.7745    0.4989 H   0  0  0  0  0  0  0  0  0  0  0  0
    6.3918    4.8676   -0.8252 H   0  0  0  0  0  0  0  0  0  0  0  0
    4.9498    7.2250    0.1094 H   0  0  0  0  0  0  0  0  0  0  0  0
    5.6696    9.4792   -0.3880 H   0  0  0  0  0  0  0  0  0  0  0  0
    5.3147    9.2740   -2.1555 H   0  0  0  0  0  0  0  0  0  0  0  0
    3.9701    9.2933   -0.9658 H   0  0  0  0  0  0  0  0  0  0  0  0
    4.2599    6.8200   -2.8435 H   0  0  0  0  0  0  0  0  0  0  0  0
  1  2  1  0
  2  3  2  0
  2  4  1  0
  4  5  1  0
  5  6  1  0
  6  7  1  0
  7  8  1  0
  8  9  1  0
  9 10  1  0
 10 11  2  0
 11 12  1  0
 12 13  2  0
 13 14  1  0
 13 15  1  0
 15 16  1  0
 16 17  1  0
 17 18  1  0
 18 19  1  0
 19 20  1  0
 19 21  2  0
 18 22  1  0
 22 23  1  0
 23 24  2  0
 23 25  1  0
 25 26  1  0
 25 27  1  0
 27 28  1  0
 28 29  2  0
 28 30  1  0
 30 31  1  0
 30 32  1  0
 32 33  1  0
 33 34  2  0
 33 35  1  0
 35 36  1  0
 35 37  1  0
 37 38  1  0
 38 39  2  0
 38 40  1  0
 40 41  1  0
 40 42  1  0
 42 43  1  0
 43 44  2  0
 43 45  1  0
 45 46  1  0
 45 47  1  0
 47 48  1  0
 48 49  2  0
 48 50  1  0
 50 51  1  0
 50 52  1  0
 52 53  1  0
 53 54  2  0
 53 55  1  0
 55 56  1  0
 56 57  1  0
 57 58  1  0
 55 59  1  0
 59 60  1  0
 60 61  2  0
 60 62  1  0
 62 63  1  0
 62 64  1  0
 64 65  1  0
 65 66  2  0
 65 67  1  0
 67 68  1  0
 67 69  1  0
 69 70  1  0
 70 71  2  0
 70 72  1  0
 72 73  1  0
 72 74  1  0
 74 75  1  0
 75 76  2  0
 75 77  1  0
 77 78  1  0
 77 79  1  0
 79 80  1  0
 80 81  2  0
 80 82  1  0
 82 83  1  0
 82 84  1  0
 84 85  1  0
 85 86  2  0
 85 87  1  0
 87 88  1  0
 87 89  1  0
 89 90  1  0
 90 91  2  0
 90 92  1  0
 92 93  1  0
 92 94  1  0
 94 95  1  0
 95 96  2  0
 95 97  1  0
 97 98  1  0
 97 99  1  0
 99100  1  0
100101  2  0
100102  1  0
102103  1  0
102104  1  0
104105  1  0
105106  2  0
105  5  1  0
 14  9  2  0
 58 11  1  0
  1107  1  0
  1108  1  0
  1109  1  0
  4110  1  0
  5111  1  1
  6112  1  0
  6113  1  0
  8114  1  0
  8115  1  0
 10116  1  0
 12117  1  0
 14118  1  0
 15119  1  0
 15120  1  0
 17121  1  0
 17122  1  0
 18123  1  1
 20124  1  0
 20125  1  0
 22126  1  0
 25127  1  1
 26128  1  0
 26129  1  0
 26130  1  0
 27131  1  0
 30132  1  1
 31133  1  0
 31134  1  0
 31135  1  0
 32136  1  0
 35137  1  1
 36138  1  0
 36139  1  0
 36140  1  0
 37141  1  0
 40142  1  6
 41143  1  0
 41144  1  0
 41145  1  0
 42146  1  0
 45147  1  1
 46148  1  0
 46149  1  0
 46150  1  0
 47151  1  0
 50152  1  1
 51153  1  0
 51154  1  0
 51155  1  0
 52156  1  0
 55157  1  6
 56158  1  0
 56159  1  0
 58160  1  0
 58161  1  0
 59162  1  0
 62163  1  6
 63164  1  0
 63165  1  0
 63166  1  0
 64167  1  0
 67168  1  1
 68169  1  0
 68170  1  0
 68171  1  0
 69172  1  0
 72173  1  1
 73174  1  0
 73175  1  0
 73176  1  0
 74177  1  0
 77178  1  1
 78179  1  0
 78180  1  0
 78181  1  0
 79182  1  0
 82183  1  1
 83184  1  0
 83185  1  0
 83186  1  0
 84187  1  0
 87188  1  1
 88189  1  0
 88190  1  0
 88191  1  0
 89192  1  0
 92193  1  1
 93194  1  0
 93195  1  0
 93196  1  0
 94197  1  0
 97198  1  1
 98199  1  0
 98200  1  0
 98201  1  0
 99202  1  0
102203  1  1
103204  1  0
103205  1  0
103206  1  0
104207  1  0
M  END
