
     RDKit          3D

147149  0  0  0  0  0  0  0  0999 V2000
    7.4521    0.7823    4.3076 C   0  0  0  0  0  0  0  0  0  0  0  0
    8.3959    0.9423    3.1602 C   0  0  0  0  0  0  0  0  0  0  0  0
    9.5630    1.3682    3.3683 O   0  0  0  0  0  0  0  0  0  0  0  0
    7.9607    0.6328    1.8288 N   0  0  0  0  0  0  0  0  0  0  0  0
    8.8555    0.7290    0.6707 C   0  0  2  0  0  0  0  0  0  0  0  0
    9.0211    2.2107    0.2410 C   0  0  0  0  0  0  0  0  0  0  0  0
    7.4703    3.1842    0.4351 S   0  0  0  0  0  0  0  0  0  0  0  0
    7.0119    3.3733   -1.3244 C   0  0  0  0  0  0  0  0  0  0  0  0
    5.5149    3.2839   -1.4488 C   0  0  0  0  0  0  0  0  0  0  0  0
    4.7067    4.3176   -0.9494 C   0  0  0  0  0  0  0  0  0  0  0  0
    3.3068    4.2210   -0.9998 C   0  0  0  0  0  0  0  0  0  0  0  0
    2.7207    3.0854   -1.5856 C   0  0  0  0  0  0  0  0  0  0  0  0
    3.5175    2.0498   -2.0956 C   0  0  0  0  0  0  0  0  0  0  0  0
    4.9144    2.1511   -2.0189 C   0  0  0  0  0  0  0  0  0  0  0  0
    2.8771    0.7854   -2.5924 C   0  0  0  0  0  0  0  0  0  0  0  0
    2.8362   -0.4324   -1.2282 S   0  0  0  0  0  0  0  0  0  0  0  0
    3.9810   -1.6453   -1.9832 C   0  0  0  0  0  0  0  0  0  0  0  0
    4.5933   -2.5489   -0.8954 C   0  0  2  0  0  0  0  0  0  0  0  0
    5.5882   -1.7882   -0.1280 N   0  0  0  0  0  0  0  0  0  0  0  0
    6.3714   -2.3859    0.9122 C   0  0  0  0  0  0  0  0  0  0  0  0
    5.7920   -2.9750    1.8643 O   0  0  0  0  0  0  0  0  0  0  0  0
    7.8831   -2.3197    0.8869 C   0  0  1  0  0  0  0  0  0  0  0  0
    8.4657   -3.7355    0.9050 C   0  0  0  0  0  0  0  0  0  0  0  0
    8.3542   -1.6157   -0.3111 N   0  0  0  0  0  0  0  0  0  0  0  0
    8.3979   -0.1846   -0.4552 C   0  0  0  0  0  0  0  0  0  0  0  0
    8.1312    0.3006   -1.5871 O   0  0  0  0  0  0  0  0  0  0  0  0
    5.2590   -3.7426   -1.5451 C   0  0  0  0  0  0  0  0  0  0  0  0
    6.2685   -3.5414   -2.2745 O   0  0  0  0  0  0  0  0  0  0  0  0
    4.8183   -5.0999   -1.3409 N   0  0  0  0  0  0  0  0  0  0  0  0
    3.4423   -5.5450   -1.0693 C   0  0  2  0  0  0  0  0  0  0  0  0
    2.4404   -4.8554   -2.0030 C   0  0  0  0  0  0  0  0  0  0  0  0
    3.0883   -5.4284    0.4002 C   0  0  0  0  0  0  0  0  0  0  0  0
    3.9504   -5.0339    1.2248 O   0  0  0  0  0  0  0  0  0  0  0  0
    1.8490   -5.9464    0.8972 N   0  0  0  0  0  0  0  0  0  0  0  0
    0.5891   -5.2090    0.7829 C   0  0  2  0  0  0  0  0  0  0  0  0
    0.2509   -4.5544    2.1262 C   0  0  0  0  0  0  0  0  0  0  0  0
   -0.4862   -6.1342    0.2522 C   0  0  0  0  0  0  0  0  0  0  0  0
   -0.2728   -6.7244   -0.8396 O   0  0  0  0  0  0  0  0  0  0  0  0
   -1.7380   -6.3398    0.9373 N   0  0  0  0  0  0  0  0  0  0  0  0
   -2.9890   -6.7080    0.2581 C   0  0  2  0  0  0  0  0  0  0  0  0
   -2.8998   -8.0968   -0.3811 C   0  0  0  0  0  0  0  0  0  0  0  0
   -3.3914   -5.6593   -0.7467 C   0  0  0  0  0  0  0  0  0  0  0  0
   -2.6485   -5.3950   -1.7295 O   0  0  0  0  0  0  0  0  0  0  0  0
   -4.6630   -5.0137   -0.6417 N   0  0  0  0  0  0  0  0  0  0  0  0
   -4.8414   -3.7628    0.1096 C   0  0  2  0  0  0  0  0  0  0  0  0
   -4.3023   -3.8814    1.5417 C   0  0  0  0  0  0  0  0  0  0  0  0
   -6.3028   -3.3967    0.1532 C   0  0  0  0  0  0  0  0  0  0  0  0
   -7.1724   -4.3064    0.2770 O   0  0  0  0  0  0  0  0  0  0  0  0
   -6.7044   -2.0165    0.1058 N   0  0  0  0  0  0  0  0  0  0  0  0
   -8.0666   -1.6067   -0.2461 C   0  0  2  0  0  0  0  0  0  0  0  0
   -8.0328   -0.8007   -1.5489 C   0  0  0  0  0  0  0  0  0  0  0  0
   -8.6858   -0.8524    0.9031 C   0  0  0  0  0  0  0  0  0  0  0  0
   -8.6943   -1.3752    2.0524 O   0  0  0  0  0  0  0  0  0  0  0  0
   -9.3744    0.3850    0.6999 N   0  0  0  0  0  0  0  0  0  0  0  0
   -8.6772    1.6740    0.7238 C   0  0  2  0  0  0  0  0  0  0  0  0
   -9.1326    2.4701    1.9487 C   0  0  0  0  0  0  0  0  0  0  0  0
   -8.9706    2.4359   -0.5458 C   0  0  0  0  0  0  0  0  0  0  0  0
  -10.0987    2.3105   -1.0942 O   0  0  0  0  0  0  0  0  0  0  0  0
   -7.9864    3.2743   -1.1739 N   0  0  0  0  0  0  0  0  0  0  0  0
   -7.1033    4.1704   -0.4159 C   0  0  2  0  0  0  0  0  0  0  0  0
   -7.8627    5.4608   -0.0922 C   0  0  0  0  0  0  0  0  0  0  0  0
   -5.8485    4.4734   -1.2081 C   0  0  0  0  0  0  0  0  0  0  0  0
   -5.9061    4.5237   -2.4651 O   0  0  0  0  0  0  0  0  0  0  0  0
   -4.5741    4.6718   -0.5722 N   0  0  0  0  0  0  0  0  0  0  0  0
   -4.3991    5.3475    0.7189 C   0  0  2  0  0  0  0  0  0  0  0  0
   -4.4289    6.8738    0.5443 C   0  0  0  0  0  0  0  0  0  0  0  0
   -3.1394    4.8690    1.4060 C   0  0  0  0  0  0  0  0  0  0  0  0
   -3.2201    3.8744    2.1752 O   0  0  0  0  0  0  0  0  0  0  0  0
   -1.8776    5.5473    1.2818 N   0  0  0  0  0  0  0  0  0  0  0  0
   -1.2360    5.8211   -0.0113 C   0  0  1  0  0  0  0  0  0  0  0  0
   -0.5793    7.1807   -0.0134 C   0  0  0  0  0  0  0  0  0  0  0  0
   -0.1375    7.7604   -1.2407 N   0  0  0  0  0  0  0  0  0  0  0  0
   -0.4171    7.8158    1.0639 O   0  0  0  0  0  0  0  0  0  0  0  0
   -0.2422    4.7013   -0.3623 C   0  0  0  0  0  0  0  0  0  0  0  0
    1.2224    4.6893    0.7506 S   0  0  0  0  0  0  0  0  0  0  0  0
    2.4503    5.3344   -0.4504 C   0  0  0  0  0  0  0  0  0  0  0  0
    6.5878    1.4627    4.1718 H   0  0  0  0  0  0  0  0  0  0  0  0
    7.9573    1.0197    5.2667 H   0  0  0  0  0  0  0  0  0  0  0  0
    7.0917   -0.2672    4.3406 H   0  0  0  0  0  0  0  0  0  0  0  0
    6.9655    0.3461    1.6855 H   0  0  0  0  0  0  0  0  0  0  0  0
    9.8598    0.3503    0.9623 H   0  0  0  0  0  0  0  0  0  0  0  0
    9.4497    2.3004   -0.7790 H   0  0  0  0  0  0  0  0  0  0  0  0
    9.7649    2.6792    0.9158 H   0  0  0  0  0  0  0  0  0  0  0  0
    7.3610    4.3636   -1.6862 H   0  0  0  0  0  0  0  0  0  0  0  0
    7.4968    2.6096   -1.9601 H   0  0  0  0  0  0  0  0  0  0  0  0
    5.1733    5.1890   -0.5045 H   0  0  0  0  0  0  0  0  0  0  0  0
    1.6445    2.9974   -1.6294 H   0  0  0  0  0  0  0  0  0  0  0  0
    5.5277    1.3349   -2.3777 H   0  0  0  0  0  0  0  0  0  0  0  0
    3.4191    0.4109   -3.4847 H   0  0  0  0  0  0  0  0  0  0  0  0
    1.8332    0.9813   -2.9146 H   0  0  0  0  0  0  0  0  0  0  0  0
    4.7999   -1.1289   -2.5284 H   0  0  0  0  0  0  0  0  0  0  0  0
    3.4102   -2.2401   -2.7262 H   0  0  0  0  0  0  0  0  0  0  0  0
    3.7916   -2.8795   -0.2085 H   0  0  0  0  0  0  0  0  0  0  0  0
    5.8137   -0.8095   -0.4104 H   0  0  0  0  0  0  0  0  0  0  0  0
    8.2476   -1.8141    1.8013 H   0  0  0  0  0  0  0  0  0  0  0  0
    8.1034   -4.3200    0.0316 H   0  0  0  0  0  0  0  0  0  0  0  0
    9.5768   -3.6879    0.8692 H   0  0  0  0  0  0  0  0  0  0  0  0
    8.1705   -4.2643    1.8352 H   0  0  0  0  0  0  0  0  0  0  0  0
    8.3710   -2.1629   -1.2015 H   0  0  0  0  0  0  0  0  0  0  0  0
    5.4974   -5.8478   -1.6091 H   0  0  0  0  0  0  0  0  0  0  0  0
    3.3927   -6.6307   -1.3061 H   0  0  0  0  0  0  0  0  0  0  0  0
    2.1728   -3.8443   -1.6399 H   0  0  0  0  0  0  0  0  0  0  0  0
    2.8624   -4.7776   -3.0270 H   0  0  0  0  0  0  0  0  0  0  0  0
    1.5107   -5.4528   -2.0759 H   0  0  0  0  0  0  0  0  0  0  0  0
    1.8987   -6.7099    1.6111 H   0  0  0  0  0  0  0  0  0  0  0  0
    0.6954   -4.3852    0.0481 H   0  0  0  0  0  0  0  0  0  0  0  0
   -0.6931   -3.9750    2.0495 H   0  0  0  0  0  0  0  0  0  0  0  0
    0.1545   -5.3223    2.9262 H   0  0  0  0  0  0  0  0  0  0  0  0
    1.0630   -3.8531    2.4149 H   0  0  0  0  0  0  0  0  0  0  0  0
   -1.8105   -6.1229    1.9539 H   0  0  0  0  0  0  0  0  0  0  0  0
   -3.7886   -6.7692    1.0294 H   0  0  0  0  0  0  0  0  0  0  0  0
   -2.4716   -8.8220    0.3412 H   0  0  0  0  0  0  0  0  0  0  0  0
   -2.2769   -8.0911   -1.3001 H   0  0  0  0  0  0  0  0  0  0  0  0
   -3.9178   -8.4417   -0.6627 H   0  0  0  0  0  0  0  0  0  0  0  0
   -5.3306   -5.2104   -1.4233 H   0  0  0  0  0  0  0  0  0  0  0  0
   -4.2863   -2.9543   -0.4105 H   0  0  0  0  0  0  0  0  0  0  0  0
   -4.5382   -2.9637    2.1199 H   0  0  0  0  0  0  0  0  0  0  0  0
   -4.7583   -4.7544    2.0530 H   0  0  0  0  0  0  0  0  0  0  0  0
   -3.1990   -3.9975    1.5234 H   0  0  0  0  0  0  0  0  0  0  0  0
   -5.9755   -1.2753    0.2327 H   0  0  0  0  0  0  0  0  0  0  0  0
   -8.7029   -2.4999   -0.4252 H   0  0  0  0  0  0  0  0  0  0  0  0
   -7.6117   -1.4283   -2.3642 H   0  0  0  0  0  0  0  0  0  0  0  0
   -7.3910    0.0995   -1.4327 H   0  0  0  0  0  0  0  0  0  0  0  0
   -9.0592   -0.4933   -1.8429 H   0  0  0  0  0  0  0  0  0  0  0  0
  -10.4192    0.3710    0.7362 H   0  0  0  0  0  0  0  0  0  0  0  0
   -7.5797    1.4975    0.7983 H   0  0  0  0  0  0  0  0  0  0  0  0
   -8.9824    1.8627    2.8678 H   0  0  0  0  0  0  0  0  0  0  0  0
   -8.5453    3.4031    2.0575 H   0  0  0  0  0  0  0  0  0  0  0  0
  -10.2116    2.7309    1.8682 H   0  0  0  0  0  0  0  0  0  0  0  0
   -8.1766    3.5238   -2.1713 H   0  0  0  0  0  0  0  0  0  0  0  0
   -6.8031    3.6785    0.5291 H   0  0  0  0  0  0  0  0  0  0  0  0
   -8.0018    6.0745   -1.0085 H   0  0  0  0  0  0  0  0  0  0  0  0
   -8.8652    5.2200    0.3221 H   0  0  0  0  0  0  0  0  0  0  0  0
   -7.3242    6.0547    0.6746 H   0  0  0  0  0  0  0  0  0  0  0  0
   -3.7341    4.5470   -1.1835 H   0  0  0  0  0  0  0  0  0  0  0  0
   -5.2448    5.0882    1.3899 H   0  0  0  0  0  0  0  0  0  0  0  0
   -4.3029    7.3704    1.5296 H   0  0  0  0  0  0  0  0  0  0  0  0
   -3.6358    7.2294   -0.1405 H   0  0  0  0  0  0  0  0  0  0  0  0
   -5.4008    7.1935    0.1167 H   0  0  0  0  0  0  0  0  0  0  0  0
   -1.2622    5.5351    2.1260 H   0  0  0  0  0  0  0  0  0  0  0  0
   -1.9994    5.8415   -0.8088 H   0  0  0  0  0  0  0  0  0  0  0  0
    0.3362    8.6923   -1.2433 H   0  0  0  0  0  0  0  0  0  0  0  0
   -0.2558    7.2497   -2.1438 H   0  0  0  0  0  0  0  0  0  0  0  0
    0.0471    4.7838   -1.4289 H   0  0  0  0  0  0  0  0  0  0  0  0
   -0.7555    3.7232   -0.2541 H   0  0  0  0  0  0  0  0  0  0  0  0
    1.9761    5.8893   -1.2847 H   0  0  0  0  0  0  0  0  0  0  0  0
    3.0790    6.0678    0.0985 H   0  0  0  0  0  0  0  0  0  0  0  0
  1  2  1  0
  2  3  2  0
  2  4  1  0
  4  5  1  0
  5  6  1  0
  6  7  1  0
  7  8  1  0
  8  9  1  0
  9 10  1  0
 10 11  2  0
 11 12  1  0
 12 13  2  0
 13 14  1  0
 13 15  1  0
 15 16  1  0
 16 17  1  0
 17 18  1  0
 18 19  1  0
 19 20  1  0
 20 21  2  0
 20 22  1  0
 22 23  1  0
 22 24  1  0
 24 25  1  0
 25 26  2  0
 18 27  1  0
 27 28  2  0
 27 29  1  0
 29 30  1  0
 30 31  1  0
 30 32  1  0
 32 33  2  0
 32 34  1  0
 34 35  1  0
 35 36  1  0
 35 37  1  0
 37 38  2  0
 37 39  1  0
 39 40  1  0
 40 41  1  0
 40 42  1  0
 42 43  2  0
 42 44  1  0
 44 45  1  0
 45 46  1  0
 45 47  1  0
 47 48  2  0
 47 49  1  0
 49 50  1  0
 50 51  1  0
 50 52  1  0
 52 53  2  0
 52 54  1  0
 54 55  1  0
 55 56  1  0
 55 57  1  0
 57 58  2  0
 57 59  1  0
 59 60  1  0
 60 61  1  0
 60 62  1  0
 62 63  2  0
 62 64  1  0
 64 65  1  0
 65 66  1  0
 65 67  1  0
 67 68  2  0
 67 69  1  0
 69 70  1  0
 70 71  1  0
 71 72  1  0
 71 73  2  0
 70 74  1  0
 74 75  1  0
 75 76  1  0
 25  5  1  0
 14  9  2  0
 76 11  1  0
  1 77  1  0
  1 78  1  0
  1 79  1  0
  4 80  1  0
  5 81  1  1
  6 82  1  0
  6 83  1  0
  8 84  1  0
  8 85  1  0
 10 86  1  0
 12 87  1  0
 14 88  1  0
 15 89  1  0
 15 90  1  0
 17 91  1  0
 17 92  1  0
 18 93  1  1
 19 94  1  0
 22 95  1  1
 23 96  1  0
 23 97  1  0
 23 98  1  0
 24 99  1  0
 29100  1  0
 30101  1  6
 31102  1  0
 31103  1  0
 31104  1  0
 34105  1  0
 35106  1  6
 36107  1  0
 36108  1  0
 36109  1  0
 39110  1  0
 40111  1  1
 41112  1  0
 41113  1  0
 41114  1  0
 44115  1  0
 45116  1  6
 46117  1  0
 46118  1  0
 46119  1  0
 49120  1  0
 50121  1  6
 51122  1  0
 51123  1  0
 51124  1  0
 54125  1  0
 55126  1  1
 56127  1  0
 56128  1  0
 56129  1  0
 59130  1  0
 60131  1  1
 61132  1  0
 61133  1  0
 61134  1  0
 64135  1  0
 65136  1  1
 66137  1  0
 66138  1  0
 66139  1  0
 69140  1  0
 70141  1  6
 72142  1  0
 72143  1  0
 74144  1  0
 74145  1  0
 76146  1  0
 76147  1  0
M  END
