
     RDKit          3D

217219  0  0  0  0  0  0  0  0999 V2000
   -3.0159    8.4837   -0.8250 C   0  0  0  0  0  0  0  0  0  0  0  0
   -3.2582    7.4343   -1.8698 C   0  0  0  0  0  0  0  0  0  0  0  0
   -3.0704    7.7305   -3.0817 O   0  0  0  0  0  0  0  0  0  0  0  0
   -3.7286    6.1072   -1.5414 N   0  0  0  0  0  0  0  0  0  0  0  0
   -3.9273    5.6005   -0.1777 C   0  0  2  0  0  0  0  0  0  0  0  0
   -2.8142    4.5971    0.1866 C   0  0  0  0  0  0  0  0  0  0  0  0
   -1.2542    5.4643    0.6166 S   0  0  0  0  0  0  0  0  0  0  0  0
   -0.5029    4.1270    1.6095 C   0  0  0  0  0  0  0  0  0  0  0  0
    0.5751    3.4248    0.8487 C   0  0  0  0  0  0  0  0  0  0  0  0
    0.4224    2.0666    0.4980 C   0  0  0  0  0  0  0  0  0  0  0  0
    1.5239    1.3064    0.0799 C   0  0  0  0  0  0  0  0  0  0  0  0
    2.7751    1.9324   -0.0857 C   0  0  0  0  0  0  0  0  0  0  0  0
    2.9324    3.2944    0.2225 C   0  0  0  0  0  0  0  0  0  0  0  0
    1.8196    4.0365    0.6660 C   0  0  0  0  0  0  0  0  0  0  0  0
    4.2787    3.9459    0.1392 C   0  0  0  0  0  0  0  0  0  0  0  0
    4.4796    4.7356   -1.5011 S   0  0  0  0  0  0  0  0  0  0  0  0
    5.6771    6.0298   -1.0013 C   0  0  0  0  0  0  0  0  0  0  0  0
    7.1062    5.7092   -1.4777 C   0  0  1  0  0  0  0  0  0  0  0  0
    7.9200    6.9727   -1.5950 C   0  0  0  0  0  0  0  0  0  0  0  0
    7.9870    7.9140   -0.5205 N   0  0  0  0  0  0  0  0  0  0  0  0
    8.6194    7.1597   -2.6333 O   0  0  0  0  0  0  0  0  0  0  0  0
    7.7436    4.7454   -0.5551 N   0  0  0  0  0  0  0  0  0  0  0  0
    9.1647    4.6537   -0.4102 C   0  0  0  0  0  0  0  0  0  0  0  0
    9.8805    4.4276   -1.4236 O   0  0  0  0  0  0  0  0  0  0  0  0
    9.8223    4.8073    0.9349 C   0  0  1  0  0  0  0  0  0  0  0  0
    8.8832    5.3866    1.9988 C   0  0  0  0  0  0  0  0  0  0  0  0
   10.3325    3.5178    1.3935 N   0  0  0  0  0  0  0  0  0  0  0  0
   11.7172    3.1432    1.4051 C   0  0  0  0  0  0  0  0  0  0  0  0
   12.0873    2.2018    2.1563 O   0  0  0  0  0  0  0  0  0  0  0  0
   12.7456    3.8157    0.5154 C   0  0  1  0  0  0  0  0  0  0  0  0
   13.5113    4.8891    1.2944 C   0  0  0  0  0  0  0  0  0  0  0  0
   13.6701    2.8035    0.0109 N   0  0  0  0  0  0  0  0  0  0  0  0
   13.2829    1.9252   -1.0613 C   0  0  0  0  0  0  0  0  0  0  0  0
   12.5985    2.3860   -2.0158 O   0  0  0  0  0  0  0  0  0  0  0  0
   13.6153    0.4522   -1.0499 C   0  0  1  0  0  0  0  0  0  0  0  0
   14.8771    0.0985   -0.2500 C   0  0  0  0  0  0  0  0  0  0  0  0
   12.4741   -0.2973   -0.5230 N   0  0  0  0  0  0  0  0  0  0  0  0
   11.5604   -0.9746   -1.3946 C   0  0  0  0  0  0  0  0  0  0  0  0
   11.0655   -0.3589   -2.3758 O   0  0  0  0  0  0  0  0  0  0  0  0
   11.2469   -2.4369   -1.2092 C   0  0  1  0  0  0  0  0  0  0  0  0
   12.4703   -3.2678   -1.5853 C   0  0  0  0  0  0  0  0  0  0  0  0
   10.8783   -2.7097    0.1884 N   0  0  0  0  0  0  0  0  0  0  0  0
    9.6808   -3.3803    0.6439 C   0  0  0  0  0  0  0  0  0  0  0  0
    9.6024   -3.6925    1.8592 O   0  0  0  0  0  0  0  0  0  0  0  0
    8.4929   -3.6992   -0.2468 C   0  0  1  0  0  0  0  0  0  0  0  0
    7.8980   -2.4291   -0.8867 C   0  0  0  0  0  0  0  0  0  0  0  0
    8.8384   -4.7139   -1.2504 N   0  0  0  0  0  0  0  0  0  0  0  0
    7.9229   -5.6854   -1.7930 C   0  0  0  0  0  0  0  0  0  0  0  0
    8.4005   -6.7337   -2.3106 O   0  0  0  0  0  0  0  0  0  0  0  0
    6.4170   -5.4982   -1.8143 C   0  0  1  0  0  0  0  0  0  0  0  0
    5.9341   -5.4649   -3.2676 C   0  0  0  0  0  0  0  0  0  0  0  0
    5.7682   -6.5973   -1.0915 N   0  0  0  0  0  0  0  0  0  0  0  0
    4.3731   -6.6002   -0.7560 C   0  0  0  0  0  0  0  0  0  0  0  0
    3.6462   -7.5335   -1.1933 O   0  0  0  0  0  0  0  0  0  0  0  0
    3.7407   -5.5533    0.1361 C   0  0  1  0  0  0  0  0  0  0  0  0
    4.6805   -5.0998    1.2588 C   0  0  0  0  0  0  0  0  0  0  0  0
    3.2809   -4.3977   -0.6526 N   0  0  0  0  0  0  0  0  0  0  0  0
    2.0405   -3.7061   -0.4139 C   0  0  0  0  0  0  0  0  0  0  0  0
    1.5112   -3.0685   -1.3610 O   0  0  0  0  0  0  0  0  0  0  0  0
    1.3975   -3.6451    0.9548 C   0  0  1  0  0  0  0  0  0  0  0  0
    1.7011   -2.3031    1.6628 C   0  0  0  0  0  0  0  0  0  0  0  0
    0.5307   -0.9446    1.2910 S   0  0  0  0  0  0  0  0  0  0  0  0
    1.3839   -0.1784   -0.1424 C   0  0  0  0  0  0  0  0  0  0  0  0
   -0.0446   -3.9238    0.8700 N   0  0  0  0  0  0  0  0  0  0  0  0
   -0.5947   -5.1931    1.2385 C   0  0  0  0  0  0  0  0  0  0  0  0
    0.0843   -6.2439    1.0694 O   0  0  0  0  0  0  0  0  0  0  0  0
   -1.9685   -5.2980    1.8585 C   0  0  1  0  0  0  0  0  0  0  0  0
   -1.9719   -4.6805    3.2576 C   0  0  0  0  0  0  0  0  0  0  0  0
   -2.9676   -4.6182    1.0207 N   0  0  0  0  0  0  0  0  0  0  0  0
   -3.8288   -5.3034    0.0948 C   0  0  0  0  0  0  0  0  0  0  0  0
   -3.9700   -4.8220   -1.0593 O   0  0  0  0  0  0  0  0  0  0  0  0
   -4.6028   -6.5588    0.4457 C   0  0  1  0  0  0  0  0  0  0  0  0
   -3.8657   -7.7907   -0.0978 C   0  0  0  0  0  0  0  0  0  0  0  0
   -4.8335   -6.6945    1.8943 N   0  0  0  0  0  0  0  0  0  0  0  0
   -5.6983   -5.8726    2.7012 C   0  0  0  0  0  0  0  0  0  0  0  0
   -5.4547   -5.7937    3.9393 O   0  0  0  0  0  0  0  0  0  0  0  0
   -6.9179   -5.1450    2.1782 C   0  0  1  0  0  0  0  0  0  0  0  0
   -6.5834   -4.0263    1.1908 C   0  0  0  0  0  0  0  0  0  0  0  0
   -7.8869   -6.0695    1.5853 N   0  0  0  0  0  0  0  0  0  0  0  0
   -9.2880   -5.9512    1.8402 C   0  0  0  0  0  0  0  0  0  0  0  0
   -9.7040   -5.9823    3.0326 O   0  0  0  0  0  0  0  0  0  0  0  0
  -10.2555   -5.8532    0.6897 C   0  0  1  0  0  0  0  0  0  0  0  0
  -10.3748   -7.1895   -0.0414 C   0  0  0  0  0  0  0  0  0  0  0  0
  -11.5893   -5.4411    1.1587 N   0  0  0  0  0  0  0  0  0  0  0  0
  -12.4289   -4.4753    0.5063 C   0  0  0  0  0  0  0  0  0  0  0  0
  -13.6786   -4.6089    0.6110 O   0  0  0  0  0  0  0  0  0  0  0  0
  -11.8688   -3.3396   -0.3291 C   0  0  1  0  0  0  0  0  0  0  0  0
  -11.7500   -3.7816   -1.7879 C   0  0  0  0  0  0  0  0  0  0  0  0
  -12.7607   -2.1695   -0.2468 N   0  0  0  0  0  0  0  0  0  0  0  0
  -12.3382   -0.8441    0.1073 C   0  0  0  0  0  0  0  0  0  0  0  0
  -13.1223   -0.1334    0.7899 O   0  0  0  0  0  0  0  0  0  0  0  0
  -11.0821   -0.2332   -0.4783 C   0  0  1  0  0  0  0  0  0  0  0  0
  -11.3218    0.2714   -1.8990 C   0  0  0  0  0  0  0  0  0  0  0  0
  -10.5079    0.8056    0.4013 N   0  0  0  0  0  0  0  0  0  0  0  0
  -11.1791    2.0037    0.8398 C   0  0  0  0  0  0  0  0  0  0  0  0
  -11.2533    2.2316    2.0789 O   0  0  0  0  0  0  0  0  0  0  0  0
  -11.7237    3.0368   -0.1154 C   0  0  1  0  0  0  0  0  0  0  0  0
  -13.2448    3.0953   -0.0206 C   0  0  0  0  0  0  0  0  0  0  0  0
  -11.1464    4.3497    0.1978 N   0  0  0  0  0  0  0  0  0  0  0  0
  -10.5104    5.1410   -0.8150 C   0  0  0  0  0  0  0  0  0  0  0  0
  -11.2096    5.9258   -1.5146 O   0  0  0  0  0  0  0  0  0  0  0  0
   -9.0414    4.9676   -1.0855 C   0  0  1  0  0  0  0  0  0  0  0  0
   -8.8102    3.8156   -2.0668 C   0  0  0  0  0  0  0  0  0  0  0  0
   -8.4640    6.1985   -1.6421 N   0  0  0  0  0  0  0  0  0  0  0  0
   -7.3345    6.9159   -1.1203 C   0  0  0  0  0  0  0  0  0  0  0  0
   -6.6855    7.6567   -1.9072 O   0  0  0  0  0  0  0  0  0  0  0  0
   -6.8730    6.8475    0.3221 C   0  0  1  0  0  0  0  0  0  0  0  0
   -7.9923    7.2630    1.2815 C   0  0  0  0  0  0  0  0  0  0  0  0
   -6.3497    5.5188    0.6469 N   0  0  0  0  0  0  0  0  0  0  0  0
   -5.2750    4.9282   -0.0844 C   0  0  0  0  0  0  0  0  0  0  0  0
   -5.4476    3.7899   -0.5979 O   0  0  0  0  0  0  0  0  0  0  0  0
   -2.2412    8.1405   -0.1089 H   0  0  0  0  0  0  0  0  0  0  0  0
   -3.9471    8.6903   -0.2701 H   0  0  0  0  0  0  0  0  0  0  0  0
   -2.6555    9.4223   -1.2987 H   0  0  0  0  0  0  0  0  0  0  0  0
   -3.8446    5.4392   -2.3435 H   0  0  0  0  0  0  0  0  0  0  0  0
   -3.9042    6.4279    0.5640 H   0  0  0  0  0  0  0  0  0  0  0  0
   -3.1552    4.0009    1.0657 H   0  0  0  0  0  0  0  0  0  0  0  0
   -2.6238    3.9019   -0.6656 H   0  0  0  0  0  0  0  0  0  0  0  0
   -0.0562    4.6031    2.5116 H   0  0  0  0  0  0  0  0  0  0  0  0
   -1.2672    3.4153    1.9892 H   0  0  0  0  0  0  0  0  0  0  0  0
   -0.5445    1.5970    0.6278 H   0  0  0  0  0  0  0  0  0  0  0  0
    3.6261    1.3514   -0.4321 H   0  0  0  0  0  0  0  0  0  0  0  0
    1.9506    5.0632    0.9563 H   0  0  0  0  0  0  0  0  0  0  0  0
    4.3589    4.6903    0.9588 H   0  0  0  0  0  0  0  0  0  0  0  0
    5.0696    3.1822    0.2892 H   0  0  0  0  0  0  0  0  0  0  0  0
    5.3385    6.9693   -1.4809 H   0  0  0  0  0  0  0  0  0  0  0  0
    5.6694    6.2242    0.0934 H   0  0  0  0  0  0  0  0  0  0  0  0
    7.0375    5.2358   -2.4860 H   0  0  0  0  0  0  0  0  0  0  0  0
    7.4144    7.7754    0.3439 H   0  0  0  0  0  0  0  0  0  0  0  0
    8.7432    8.6281   -0.4944 H   0  0  0  0  0  0  0  0  0  0  0  0
    7.1842    3.9276   -0.2227 H   0  0  0  0  0  0  0  0  0  0  0  0
   10.6516    5.5282    0.8211 H   0  0  0  0  0  0  0  0  0  0  0  0
    9.4085    5.4547    2.9699 H   0  0  0  0  0  0  0  0  0  0  0  0
    7.9877    4.7446    2.1352 H   0  0  0  0  0  0  0  0  0  0  0  0
    8.5696    6.4106    1.7250 H   0  0  0  0  0  0  0  0  0  0  0  0
    9.6560    2.8531    1.8277 H   0  0  0  0  0  0  0  0  0  0  0  0
   12.2455    4.3145   -0.3439 H   0  0  0  0  0  0  0  0  0  0  0  0
   12.8208    5.6534    1.7020 H   0  0  0  0  0  0  0  0  0  0  0  0
   14.2361    5.3939    0.6235 H   0  0  0  0  0  0  0  0  0  0  0  0
   14.0655    4.4276    2.1370 H   0  0  0  0  0  0  0  0  0  0  0  0
   14.4717    2.5406    0.6260 H   0  0  0  0  0  0  0  0  0  0  0  0
   13.8087    0.1411   -2.1019 H   0  0  0  0  0  0  0  0  0  0  0  0
   15.7355    0.7181   -0.5847 H   0  0  0  0  0  0  0  0  0  0  0  0
   14.7206    0.2547    0.8424 H   0  0  0  0  0  0  0  0  0  0  0  0
   15.1307   -0.9707   -0.4085 H   0  0  0  0  0  0  0  0  0  0  0  0
   12.3003   -0.3095    0.5104 H   0  0  0  0  0  0  0  0  0  0  0  0
   10.4281   -2.7082   -1.8925 H   0  0  0  0  0  0  0  0  0  0  0  0
   13.3451   -2.9937   -0.9443 H   0  0  0  0  0  0  0  0  0  0  0  0
   12.7286   -3.0851   -2.6540 H   0  0  0  0  0  0  0  0  0  0  0  0
   12.2604   -4.3506   -1.4584 H   0  0  0  0  0  0  0  0  0  0  0  0
   11.5970   -2.5110    0.9230 H   0  0  0  0  0  0  0  0  0  0  0  0
    7.7198   -4.1373    0.4261 H   0  0  0  0  0  0  0  0  0  0  0  0
    8.1944   -2.3298   -1.9519 H   0  0  0  0  0  0  0  0  0  0  0  0
    6.7921   -2.4524   -0.8438 H   0  0  0  0  0  0  0  0  0  0  0  0
    8.2231   -1.5161   -0.3405 H   0  0  0  0  0  0  0  0  0  0  0  0
    9.8450   -4.8863   -1.4606 H   0  0  0  0  0  0  0  0  0  0  0  0
    6.1397   -4.5373   -1.3422 H   0  0  0  0  0  0  0  0  0  0  0  0
    6.1203   -6.4424   -3.7580 H   0  0  0  0  0  0  0  0  0  0  0  0
    6.4609   -4.6653   -3.8268 H   0  0  0  0  0  0  0  0  0  0  0  0
    4.8428   -5.2511   -3.3161 H   0  0  0  0  0  0  0  0  0  0  0  0
    6.2063   -7.5458   -1.1736 H   0  0  0  0  0  0  0  0  0  0  0  0
    2.8659   -6.0461    0.6135 H   0  0  0  0  0  0  0  0  0  0  0  0
    5.0131   -5.9853    1.8443 H   0  0  0  0  0  0  0  0  0  0  0  0
    5.5787   -4.6149    0.8565 H   0  0  0  0  0  0  0  0  0  0  0  0
    4.1658   -4.3934    1.9432 H   0  0  0  0  0  0  0  0  0  0  0  0
    3.7959   -4.1506   -1.5285 H   0  0  0  0  0  0  0  0  0  0  0  0
    1.8529   -4.4134    1.6008 H   0  0  0  0  0  0  0  0  0  0  0  0
    2.7520   -1.9817    1.4881 H   0  0  0  0  0  0  0  0  0  0  0  0
    1.5995   -2.4795    2.7604 H   0  0  0  0  0  0  0  0  0  0  0  0
    2.3766   -0.6383   -0.3082 H   0  0  0  0  0  0  0  0  0  0  0  0
    0.7736   -0.3577   -1.0487 H   0  0  0  0  0  0  0  0  0  0  0  0
   -0.6820   -3.1899    0.4984 H   0  0  0  0  0  0  0  0  0  0  0  0
   -2.2216   -6.3651    1.9685 H   0  0  0  0  0  0  0  0  0  0  0  0
   -2.9881   -4.7440    3.7074 H   0  0  0  0  0  0  0  0  0  0  0  0
   -1.2738   -5.2388    3.9149 H   0  0  0  0  0  0  0  0  0  0  0  0
   -1.6585   -3.6211    3.2180 H   0  0  0  0  0  0  0  0  0  0  0  0
   -2.8866   -3.5882    0.9015 H   0  0  0  0  0  0  0  0  0  0  0  0
   -5.5755   -6.5328   -0.0723 H   0  0  0  0  0  0  0  0  0  0  0  0
   -3.7906   -7.7266   -1.2077 H   0  0  0  0  0  0  0  0  0  0  0  0
   -4.4325   -8.7122    0.1615 H   0  0  0  0  0  0  0  0  0  0  0  0
   -2.8374   -7.8742    0.3106 H   0  0  0  0  0  0  0  0  0  0  0  0
   -4.2720   -7.4053    2.4198 H   0  0  0  0  0  0  0  0  0  0  0  0
   -7.4091   -4.6466    3.0539 H   0  0  0  0  0  0  0  0  0  0  0  0
   -7.4067   -3.2842    1.1690 H   0  0  0  0  0  0  0  0  0  0  0  0
   -5.6560   -3.4978    1.4960 H   0  0  0  0  0  0  0  0  0  0  0  0
   -6.4670   -4.4156    0.1621 H   0  0  0  0  0  0  0  0  0  0  0  0
   -7.5792   -6.7208    0.8237 H   0  0  0  0  0  0  0  0  0  0  0  0
   -9.8506   -5.1069   -0.0223 H   0  0  0  0  0  0  0  0  0  0  0  0
  -11.0961   -7.0927   -0.8847 H   0  0  0  0  0  0  0  0  0  0  0  0
  -10.7344   -7.9830    0.6455 H   0  0  0  0  0  0  0  0  0  0  0  0
   -9.3934   -7.4923   -0.4702 H   0  0  0  0  0  0  0  0  0  0  0  0
  -12.0597   -6.0642    1.8485 H   0  0  0  0  0  0  0  0  0  0  0  0
  -10.8627   -3.0866    0.0597 H   0  0  0  0  0  0  0  0  0  0  0  0
  -12.7567   -3.9687   -2.2241 H   0  0  0  0  0  0  0  0  0  0  0  0
  -11.2467   -3.0003   -2.3903 H   0  0  0  0  0  0  0  0  0  0  0  0
  -11.1604   -4.7124   -1.8830 H   0  0  0  0  0  0  0  0  0  0  0  0
  -13.7879   -2.3151   -0.3848 H   0  0  0  0  0  0  0  0  0  0  0  0
  -10.3157   -1.0285   -0.5639 H   0  0  0  0  0  0  0  0  0  0  0  0
  -12.2455    0.8831   -1.9634 H   0  0  0  0  0  0  0  0  0  0  0  0
  -11.4651   -0.5948   -2.5841 H   0  0  0  0  0  0  0  0  0  0  0  0
  -10.4478    0.8558   -2.2590 H   0  0  0  0  0  0  0  0  0  0  0  0
   -9.7179    0.4877    1.0042 H   0  0  0  0  0  0  0  0  0  0  0  0
  -11.4502    2.7814   -1.1533 H   0  0  0  0  0  0  0  0  0  0  0  0
  -13.6337    3.9021   -0.6803 H   0  0  0  0  0  0  0  0  0  0  0  0
  -13.6949    2.1377   -0.3644 H   0  0  0  0  0  0  0  0  0  0  0  0
  -13.5845    3.3042    1.0240 H   0  0  0  0  0  0  0  0  0  0  0  0
  -11.3717    4.8018    1.1085 H   0  0  0  0  0  0  0  0  0  0  0  0
   -8.5510    4.6873   -0.1412 H   0  0  0  0  0  0  0  0  0  0  0  0
   -9.1258    2.8554   -1.6078 H   0  0  0  0  0  0  0  0  0  0  0  0
   -9.3760    3.9781   -3.0076 H   0  0  0  0  0  0  0  0  0  0  0  0
   -7.7269    3.7382   -2.3109 H   0  0  0  0  0  0  0  0  0  0  0  0
   -8.8295    6.5124   -2.5719 H   0  0  0  0  0  0  0  0  0  0  0  0
   -6.0539    7.5874    0.4653 H   0  0  0  0  0  0  0  0  0  0  0  0
   -8.8605    6.5728    1.2249 H   0  0  0  0  0  0  0  0  0  0  0  0
   -8.3440    8.2919    1.0330 H   0  0  0  0  0  0  0  0  0  0  0  0
   -7.6171    7.2638    2.3287 H   0  0  0  0  0  0  0  0  0  0  0  0
   -6.8401    4.9181    1.3476 H   0  0  0  0  0  0  0  0  0  0  0  0
  1  2  1  0
  2  3  2  0
  2  4  1  0
  4  5  1  0
  5  6  1  0
  6  7  1  0
  7  8  1  0
  8  9  1  0
  9 10  1  0
 10 11  2  0
 11 12  1  0
 12 13  2  0
 13 14  1  0
 13 15  1  0
 15 16  1  0
 16 17  1  0
 17 18  1  0
 18 19  1  0
 19 20  1  0
 19 21  2  0
 18 22  1  0
 22 23  1  0
 23 24  2  0
 23 25  1  0
 25 26  1  0
 25 27  1  0
 27 28  1  0
 28 29  2  0
 28 30  1  0
 30 31  1  0
 30 32  1  0
 32 33  1  0
 33 34  2  0
 33 35  1  0
 35 36  1  0
 35 37  1  0
 37 38  1  0
 38 39  2  0
 38 40  1  0
 40 41  1  0
 40 42  1  0
 42 43  1  0
 43 44  2  0
 43 45  1  0
 45 46  1  0
 45 47  1  0
 47 48  1  0
 48 49  2  0
 48 50  1  0
 50 51  1  0
 50 52  1  0
 52 53  1  0
 53 54  2  0
 53 55  1  0
 55 56  1  0
 55 57  1  0
 57 58  1  0
 58 59  2  0
 58 60  1  0
 60 61  1  0
 61 62  1  0
 62 63  1  0
 60 64  1  0
 64 65  1  0
 65 66  2  0
 65 67  1  0
 67 68  1  0
 67 69  1  0
 69 70  1  0
 70 71  2  0
 70 72  1  0
 72 73  1  0
 72 74  1  0
 74 75  1  0
 75 76  2  0
 75 77  1  0
 77 78  1  0
 77 79  1  0
 79 80  1  0
 80 81  2  0
 80 82  1  0
 82 83  1  0
 82 84  1  0
 84 85  1  0
 85 86  2  0
 85 87  1  0
 87 88  1  0
 87 89  1  0
 89 90  1  0
 90 91  2  0
 90 92  1  0
 92 93  1  0
 92 94  1  0
 94 95  1  0
 95 96  2  0
 95 97  1  0
 97 98  1  0
 97 99  1  0
 99100  1  0
100101  2  0
100102  1  0
102103  1  0
102104  1  0
104105  1  0
105106  2  0
105107  1  0
107108  1  0
107109  1  0
109110  1  0
110111  2  0
110  5  1  0
 14  9  2  0
 63 11  1  0
  1112  1  0
  1113  1  0
  1114  1  0
  4115  1  0
  5116  1  1
  6117  1  0
  6118  1  0
  8119  1  0
  8120  1  0
 10121  1  0
 12122  1  0
 14123  1  0
 15124  1  0
 15125  1  0
 17126  1  0
 17127  1  0
 18128  1  6
 20129  1  0
 20130  1  0
 22131  1  0
 25132  1  6
 26133  1  0
 26134  1  0
 26135  1  0
 27136  1  0
 30137  1  6
 31138  1  0
 31139  1  0
 31140  1  0
 32141  1  0
 35142  1  6
 36143  1  0
 36144  1  0
 36145  1  0
 37146  1  0
 40147  1  6
 41148  1  0
 41149  1  0
 41150  1  0
 42151  1  0
 45152  1  1
 46153  1  0
 46154  1  0
 46155  1  0
 47156  1  0
 50157  1  1
 51158  1  0
 51159  1  0
 51160  1  0
 52161  1  0
 55162  1  1
 56163  1  0
 56164  1  0
 56165  1  0
 57166  1  0
 60167  1  1
 61168  1  0
 61169  1  0
 63170  1  0
 63171  1  0
 64172  1  0
 67173  1  1
 68174  1  0
 68175  1  0
 68176  1  0
 69177  1  0
 72178  1  6
 73179  1  0
 73180  1  0
 73181  1  0
 74182  1  0
 77183  1  1
 78184  1  0
 78185  1  0
 78186  1  0
 79187  1  0
 82188  1  6
 83189  1  0
 83190  1  0
 83191  1  0
 84192  1  0
 87193  1  1
 88194  1  0
 88195  1  0
 88196  1  0
 89197  1  0
 92198  1  6
 93199  1  0
 93200  1  0
 93201  1  0
 94202  1  0
 97203  1  6
 98204  1  0
 98205  1  0
 98206  1  0
 99207  1  0
102208  1  1
103209  1  0
103210  1  0
103211  1  0
104212  1  0
107213  1  6
108214  1  0
108215  1  0
108216  1  0
109217  1  0
M  END
