
     RDKit          3D

237239  0  0  0  0  0  0  0  0999 V2000
   -1.9454    9.0174   -1.6205 C   0  0  0  0  0  0  0  0  0  0  0  0
   -2.1467    7.7270   -0.8930 C   0  0  0  0  0  0  0  0  0  0  0  0
   -1.2065    6.8840   -0.8621 O   0  0  0  0  0  0  0  0  0  0  0  0
   -3.3873    7.4571   -0.2146 N   0  0  0  0  0  0  0  0  0  0  0  0
   -3.6117    6.2414    0.5823 C   0  0  2  0  0  0  0  0  0  0  0  0
   -3.6651    4.9860   -0.3233 C   0  0  0  0  0  0  0  0  0  0  0  0
   -4.4528    3.5093    0.4338 S   0  0  0  0  0  0  0  0  0  0  0  0
   -3.2796    3.2414    1.8163 C   0  0  0  0  0  0  0  0  0  0  0  0
   -1.8758    2.9613    1.3521 C   0  0  0  0  0  0  0  0  0  0  0  0
   -1.5814    1.8216    0.5885 C   0  0  0  0  0  0  0  0  0  0  0  0
   -0.2612    1.5520    0.1904 C   0  0  0  0  0  0  0  0  0  0  0  0
    0.7690    2.4205    0.5757 C   0  0  0  0  0  0  0  0  0  0  0  0
    0.4910    3.5510    1.3568 C   0  0  0  0  0  0  0  0  0  0  0  0
   -0.8314    3.8177    1.7392 C   0  0  0  0  0  0  0  0  0  0  0  0
    1.5836    4.4995    1.7434 C   0  0  0  0  0  0  0  0  0  0  0  0
    1.6490    5.8710    0.5359 S   0  0  0  0  0  0  0  0  0  0  0  0
    3.1302    5.3314   -0.4100 C   0  0  0  0  0  0  0  0  0  0  0  0
    4.1018    6.5055   -0.6337 C   0  0  1  0  0  0  0  0  0  0  0  0
    3.4441    7.5973   -1.4444 C   0  0  0  0  0  0  0  0  0  0  0  0
    3.1413    8.8819   -0.8925 N   0  0  0  0  0  0  0  0  0  0  0  0
    3.1419    7.3641   -2.6469 O   0  0  0  0  0  0  0  0  0  0  0  0
    4.5922    7.0010    0.6630 N   0  0  0  0  0  0  0  0  0  0  0  0
    5.9642    6.9356    1.0736 C   0  0  0  0  0  0  0  0  0  0  0  0
    6.2262    6.5584    2.2495 O   0  0  0  0  0  0  0  0  0  0  0  0
    7.1039    7.3139    0.1520 C   0  0  1  0  0  0  0  0  0  0  0  0
    6.8264    8.6476   -0.5534 C   0  0  0  0  0  0  0  0  0  0  0  0
    8.3518    7.4396    0.9256 N   0  0  0  0  0  0  0  0  0  0  0  0
    9.3647    6.4274    1.0604 C   0  0  0  0  0  0  0  0  0  0  0  0
   10.4347    6.7296    1.6514 O   0  0  0  0  0  0  0  0  0  0  0  0
    9.2171    5.0433    0.4578 C   0  0  1  0  0  0  0  0  0  0  0  0
    9.7864    5.0081   -0.9642 C   0  0  0  0  0  0  0  0  0  0  0  0
    9.7926    4.0080    1.3347 N   0  0  0  0  0  0  0  0  0  0  0  0
   11.1629    3.9335    1.7680 C   0  0  0  0  0  0  0  0  0  0  0  0
   11.4091    3.9541    3.0048 O   0  0  0  0  0  0  0  0  0  0  0  0
   12.2952    3.6924    0.7988 C   0  0  1  0  0  0  0  0  0  0  0  0
   13.3627    4.7827    0.9457 C   0  0  0  0  0  0  0  0  0  0  0  0
   12.8794    2.3639    1.0031 N   0  0  0  0  0  0  0  0  0  0  0  0
   12.1473    1.1829    0.6480 C   0  0  0  0  0  0  0  0  0  0  0  0
   10.9670    1.0226    1.0703 O   0  0  0  0  0  0  0  0  0  0  0  0
   12.7833    0.1246   -0.2132 C   0  0  1  0  0  0  0  0  0  0  0  0
   13.3877    0.7684   -1.4685 C   0  0  0  0  0  0  0  0  0  0  0  0
   13.8171   -0.5918    0.5474 N   0  0  0  0  0  0  0  0  0  0  0  0
   14.1721   -1.9712    0.3663 C   0  0  0  0  0  0  0  0  0  0  0  0
   14.9469   -2.5054    1.2065 O   0  0  0  0  0  0  0  0  0  0  0  0
   13.6408   -2.7988   -0.7876 C   0  0  1  0  0  0  0  0  0  0  0  0
   14.6609   -3.8480   -1.2559 C   0  0  0  0  0  0  0  0  0  0  0  0
   12.3613   -3.4201   -0.4493 N   0  0  0  0  0  0  0  0  0  0  0  0
   12.2570   -4.5336    0.4492 C   0  0  0  0  0  0  0  0  0  0  0  0
   12.8156   -4.4890    1.5805 O   0  0  0  0  0  0  0  0  0  0  0  0
   11.5575   -5.7806    0.0003 C   0  0  1  0  0  0  0  0  0  0  0  0
   12.5444   -6.9525   -0.0614 C   0  0  0  0  0  0  0  0  0  0  0  0
   10.4464   -6.1116    0.8986 N   0  0  0  0  0  0  0  0  0  0  0  0
    9.1998   -6.5728    0.3739 C   0  0  0  0  0  0  0  0  0  0  0  0
    8.7569   -7.6942    0.7311 O   0  0  0  0  0  0  0  0  0  0  0  0
    8.3926   -5.7206   -0.5758 C   0  0  1  0  0  0  0  0  0  0  0  0
    8.3231   -6.4280   -1.9441 C   0  0  0  0  0  0  0  0  0  0  0  0
    7.0659   -5.4816   -0.0016 N   0  0  0  0  0  0  0  0  0  0  0  0
    5.8691   -5.3073   -0.7777 C   0  0  0  0  0  0  0  0  0  0  0  0
    5.8616   -4.5194   -1.7622 O   0  0  0  0  0  0  0  0  0  0  0  0
    4.6090   -6.0707   -0.4334 C   0  0  1  0  0  0  0  0  0  0  0  0
    4.9337   -7.3822    0.3004 C   0  0  0  0  0  0  0  0  0  0  0  0
    3.7140   -5.2378    0.3774 N   0  0  0  0  0  0  0  0  0  0  0  0
    2.3205   -5.5270    0.5717 C   0  0  0  0  0  0  0  0  0  0  0  0
    1.7467   -5.0579    1.6006 O   0  0  0  0  0  0  0  0  0  0  0  0
    1.5296   -6.3421   -0.4314 C   0  0  1  0  0  0  0  0  0  0  0  0
    0.1935   -6.8677    0.1043 C   0  0  0  0  0  0  0  0  0  0  0  0
    1.3618   -5.6178   -1.7040 N   0  0  0  0  0  0  0  0  0  0  0  0
    0.5705   -4.4352   -1.9611 C   0  0  0  0  0  0  0  0  0  0  0  0
    0.3299   -4.1294   -3.1611 O   0  0  0  0  0  0  0  0  0  0  0  0
    0.0739   -3.5052   -0.8778 C   0  0  1  0  0  0  0  0  0  0  0  0
    0.9326   -2.2317   -0.8590 C   0  0  0  0  0  0  0  0  0  0  0  0
    0.3738   -1.0984    0.4717 S   0  0  0  0  0  0  0  0  0  0  0  0
    0.0550    0.3298   -0.6260 C   0  0  0  0  0  0  0  0  0  0  0  0
   -1.3367   -3.1714   -1.0993 N   0  0  0  0  0  0  0  0  0  0  0  0
   -2.3689   -4.1550   -0.9086 C   0  0  0  0  0  0  0  0  0  0  0  0
   -2.8578   -4.7305   -1.9212 O   0  0  0  0  0  0  0  0  0  0  0  0
   -2.9224   -4.4901    0.4563 C   0  0  1  0  0  0  0  0  0  0  0  0
   -2.2639   -3.7203    1.6059 C   0  0  0  0  0  0  0  0  0  0  0  0
   -4.3678   -4.2286    0.4793 N   0  0  0  0  0  0  0  0  0  0  0  0
   -5.2685   -4.9792    1.3043 C   0  0  0  0  0  0  0  0  0  0  0  0
   -6.2412   -4.3765    1.8454 O   0  0  0  0  0  0  0  0  0  0  0  0
   -5.1032   -6.4723    1.5003 C   0  0  1  0  0  0  0  0  0  0  0  0
   -6.1789   -7.1093    2.3961 C   0  0  0  0  0  0  0  0  0  0  0  0
   -5.0224   -7.1727    0.2099 N   0  0  0  0  0  0  0  0  0  0  0  0
   -6.1222   -7.4392   -0.6800 C   0  0  0  0  0  0  0  0  0  0  0  0
   -6.0628   -8.4652   -1.4132 O   0  0  0  0  0  0  0  0  0  0  0  0
   -7.3037   -6.5062   -0.8394 C   0  0  1  0  0  0  0  0  0  0  0  0
   -7.2694   -5.8694   -2.2268 C   0  0  0  0  0  0  0  0  0  0  0  0
   -8.5610   -7.2357   -0.6460 N   0  0  0  0  0  0  0  0  0  0  0  0
   -9.5902   -6.8014    0.2601 C   0  0  0  0  0  0  0  0  0  0  0  0
   -9.9483   -7.5801    1.1872 O   0  0  0  0  0  0  0  0  0  0  0  0
  -10.3358   -5.4923    0.0705 C   0  0  1  0  0  0  0  0  0  0  0  0
   -9.5040   -4.2994    0.5603 C   0  0  0  0  0  0  0  0  0  0  0  0
  -10.7259   -5.3299   -1.3389 N   0  0  0  0  0  0  0  0  0  0  0  0
  -11.4083   -4.1846   -1.8794 C   0  0  0  0  0  0  0  0  0  0  0  0
  -10.9526   -3.6567   -2.9285 O   0  0  0  0  0  0  0  0  0  0  0  0
  -12.7042   -3.6459   -1.3099 C   0  0  1  0  0  0  0  0  0  0  0  0
  -13.6379   -4.7416   -0.7696 C   0  0  0  0  0  0  0  0  0  0  0  0
  -12.4617   -2.6008   -0.3097 N   0  0  0  0  0  0  0  0  0  0  0  0
  -11.9638   -1.3129   -0.7060 C   0  0  0  0  0  0  0  0  0  0  0  0
  -10.8781   -1.2326   -1.3408 O   0  0  0  0  0  0  0  0  0  0  0  0
  -12.7433   -0.0559   -0.4122 C   0  0  1  0  0  0  0  0  0  0  0  0
  -14.2069   -0.2246   -0.8239 C   0  0  0  0  0  0  0  0  0  0  0  0
  -12.6607    0.2700    1.0148 N   0  0  0  0  0  0  0  0  0  0  0  0
  -12.7615    1.6133    1.5339 C   0  0  0  0  0  0  0  0  0  0  0  0
  -13.3548    1.7853    2.6333 O   0  0  0  0  0  0  0  0  0  0  0  0
  -12.1941    2.8126    0.8029 C   0  0  1  0  0  0  0  0  0  0  0  0
  -13.3034    3.5293    0.0249 C   0  0  0  0  0  0  0  0  0  0  0  0
  -11.6032    3.7463    1.7655 N   0  0  0  0  0  0  0  0  0  0  0  0
  -10.2913    4.3108    1.6220 C   0  0  0  0  0  0  0  0  0  0  0  0
   -9.5790    4.4391    2.6544 O   0  0  0  0  0  0  0  0  0  0  0  0
   -9.8461    4.9487    0.3226 C   0  0  1  0  0  0  0  0  0  0  0  0
  -10.4628    6.3546    0.2489 C   0  0  0  0  0  0  0  0  0  0  0  0
   -8.3798    5.0234    0.2517 N   0  0  0  0  0  0  0  0  0  0  0  0
   -7.6852    5.8088   -0.7315 C   0  0  0  0  0  0  0  0  0  0  0  0
   -8.0421    5.7366   -1.9416 O   0  0  0  0  0  0  0  0  0  0  0  0
   -6.6235    6.8047   -0.3315 C   0  0  1  0  0  0  0  0  0  0  0  0
   -7.1969    8.2243   -0.4105 C   0  0  0  0  0  0  0  0  0  0  0  0
   -6.1707    6.5545    1.0437 N   0  0  0  0  0  0  0  0  0  0  0  0
   -4.8107    6.4131    1.4961 C   0  0  0  0  0  0  0  0  0  0  0  0
   -4.5965    6.4276    2.7384 O   0  0  0  0  0  0  0  0  0  0  0  0
   -2.8592    9.6482   -1.5893 H   0  0  0  0  0  0  0  0  0  0  0  0
   -1.6888    8.8112   -2.6799 H   0  0  0  0  0  0  0  0  0  0  0  0
   -1.1102    9.5792   -1.1517 H   0  0  0  0  0  0  0  0  0  0  0  0
   -4.1051    8.2172   -0.1981 H   0  0  0  0  0  0  0  0  0  0  0  0
   -2.7240    6.1199    1.2386 H   0  0  0  0  0  0  0  0  0  0  0  0
   -4.2266    5.2096   -1.2515 H   0  0  0  0  0  0  0  0  0  0  0  0
   -2.6376    4.7145   -0.6468 H   0  0  0  0  0  0  0  0  0  0  0  0
   -3.3140    4.1094    2.5052 H   0  0  0  0  0  0  0  0  0  0  0  0
   -3.6364    2.3680    2.4031 H   0  0  0  0  0  0  0  0  0  0  0  0
   -2.3781    1.1427    0.3080 H   0  0  0  0  0  0  0  0  0  0  0  0
    1.7853    2.2126    0.2721 H   0  0  0  0  0  0  0  0  0  0  0  0
   -1.0480    4.7049    2.3197 H   0  0  0  0  0  0  0  0  0  0  0  0
    1.3664    4.9255    2.7485 H   0  0  0  0  0  0  0  0  0  0  0  0
    2.5553    3.9668    1.8442 H   0  0  0  0  0  0  0  0  0  0  0  0
    2.7894    4.9304   -1.3894 H   0  0  0  0  0  0  0  0  0  0  0  0
    3.6865    4.5179    0.0974 H   0  0  0  0  0  0  0  0  0  0  0  0
    4.9592    6.1216   -1.2340 H   0  0  0  0  0  0  0  0  0  0  0  0
    2.6921    9.6088   -1.4968 H   0  0  0  0  0  0  0  0  0  0  0  0
    3.3633    9.1314    0.0920 H   0  0  0  0  0  0  0  0  0  0  0  0
    3.8963    7.2291    1.4065 H   0  0  0  0  0  0  0  0  0  0  0  0
    7.2121    6.5455   -0.6347 H   0  0  0  0  0  0  0  0  0  0  0  0
    6.0258    8.5343   -1.3096 H   0  0  0  0  0  0  0  0  0  0  0  0
    7.7423    8.9876   -1.0784 H   0  0  0  0  0  0  0  0  0  0  0  0
    6.5238    9.4275    0.1784 H   0  0  0  0  0  0  0  0  0  0  0  0
    8.4803    8.3166    1.4841 H   0  0  0  0  0  0  0  0  0  0  0  0
    8.1327    4.8092    0.3748 H   0  0  0  0  0  0  0  0  0  0  0  0
    9.1264    5.5718   -1.6496 H   0  0  0  0  0  0  0  0  0  0  0  0
   10.7920    5.4756   -1.0050 H   0  0  0  0  0  0  0  0  0  0  0  0
    9.8354    3.9613   -1.3266 H   0  0  0  0  0  0  0  0  0  0  0  0
    9.1115    3.4651    1.9092 H   0  0  0  0  0  0  0  0  0  0  0  0
   11.9289    3.7263   -0.2386 H   0  0  0  0  0  0  0  0  0  0  0  0
   13.8373    4.7414    1.9514 H   0  0  0  0  0  0  0  0  0  0  0  0
   12.9104    5.7896    0.8017 H   0  0  0  0  0  0  0  0  0  0  0  0
   14.1520    4.6463    0.1743 H   0  0  0  0  0  0  0  0  0  0  0  0
   13.9186    2.2847    1.0499 H   0  0  0  0  0  0  0  0  0  0  0  0
   11.9865   -0.5860   -0.5368 H   0  0  0  0  0  0  0  0  0  0  0  0
   13.8069    0.0028   -2.1505 H   0  0  0  0  0  0  0  0  0  0  0  0
   12.6006    1.3264   -2.0246 H   0  0  0  0  0  0  0  0  0  0  0  0
   14.2021    1.4699   -1.2011 H   0  0  0  0  0  0  0  0  0  0  0  0
   14.3523   -0.0563    1.2691 H   0  0  0  0  0  0  0  0  0  0  0  0
   13.4773   -2.1358   -1.6608 H   0  0  0  0  0  0  0  0  0  0  0  0
   15.5912   -3.3462   -1.6003 H   0  0  0  0  0  0  0  0  0  0  0  0
   14.2395   -4.4360   -2.0989 H   0  0  0  0  0  0  0  0  0  0  0  0
   14.9123   -4.5528   -0.4324 H   0  0  0  0  0  0  0  0  0  0  0  0
   11.5491   -3.2293   -1.0826 H   0  0  0  0  0  0  0  0  0  0  0  0
   11.1768   -5.6192   -1.0355 H   0  0  0  0  0  0  0  0  0  0  0  0
   12.0241   -7.8587   -0.4363 H   0  0  0  0  0  0  0  0  0  0  0  0
   12.9579   -7.1749    0.9421 H   0  0  0  0  0  0  0  0  0  0  0  0
   13.3730   -6.7132   -0.7662 H   0  0  0  0  0  0  0  0  0  0  0  0
   10.6694   -6.3396    1.8934 H   0  0  0  0  0  0  0  0  0  0  0  0
    8.9019   -4.7437   -0.7144 H   0  0  0  0  0  0  0  0  0  0  0  0
    9.3461   -6.6606   -2.3087 H   0  0  0  0  0  0  0  0  0  0  0  0
    7.7394   -7.3686   -1.8662 H   0  0  0  0  0  0  0  0  0  0  0  0
    7.8480   -5.7698   -2.7005 H   0  0  0  0  0  0  0  0  0  0  0  0
    6.9694   -5.4527    1.0410 H   0  0  0  0  0  0  0  0  0  0  0  0
    4.1185   -6.3308   -1.3946 H   0  0  0  0  0  0  0  0  0  0  0  0
    5.6704   -7.9768   -0.2854 H   0  0  0  0  0  0  0  0  0  0  0  0
    4.0201   -7.9991    0.4328 H   0  0  0  0  0  0  0  0  0  0  0  0
    5.3536   -7.1748    1.3064 H   0  0  0  0  0  0  0  0  0  0  0  0
    4.1329   -4.4749    0.9549 H   0  0  0  0  0  0  0  0  0  0  0  0
    2.1199   -7.2590   -0.6463 H   0  0  0  0  0  0  0  0  0  0  0  0
   -0.5157   -6.0532    0.3126 H   0  0  0  0  0  0  0  0  0  0  0  0
   -0.2686   -7.5474   -0.6399 H   0  0  0  0  0  0  0  0  0  0  0  0
    0.3571   -7.4402    1.0439 H   0  0  0  0  0  0  0  0  0  0  0  0
    1.7992   -6.0629   -2.5439 H   0  0  0  0  0  0  0  0  0  0  0  0
    0.1709   -3.9792    0.1041 H   0  0  0  0  0  0  0  0  0  0  0  0
    0.9147   -1.7507   -1.8618 H   0  0  0  0  0  0  0  0  0  0  0  0
    1.9864   -2.5098   -0.6277 H   0  0  0  0  0  0  0  0  0  0  0  0
   -0.7884    0.0895   -1.3049 H   0  0  0  0  0  0  0  0  0  0  0  0
    0.9535    0.5273   -1.2552 H   0  0  0  0  0  0  0  0  0  0  0  0
   -1.5576   -2.4092   -1.7735 H   0  0  0  0  0  0  0  0  0  0  0  0
   -2.7324   -5.5707    0.6104 H   0  0  0  0  0  0  0  0  0  0  0  0
   -1.2259   -4.0626    1.7776 H   0  0  0  0  0  0  0  0  0  0  0  0
   -2.8189   -3.9166    2.5512 H   0  0  0  0  0  0  0  0  0  0  0  0
   -2.2781   -2.6271    1.4165 H   0  0  0  0  0  0  0  0  0  0  0  0
   -4.6908   -3.2873    0.1507 H   0  0  0  0  0  0  0  0  0  0  0  0
   -4.1408   -6.6231    2.0386 H   0  0  0  0  0  0  0  0  0  0  0  0
   -6.1491   -6.6569    3.4125 H   0  0  0  0  0  0  0  0  0  0  0  0
   -7.1916   -6.9613    1.9717 H   0  0  0  0  0  0  0  0  0  0  0  0
   -5.9887   -8.1983    2.4879 H   0  0  0  0  0  0  0  0  0  0  0  0
   -4.1222   -7.6666    0.0002 H   0  0  0  0  0  0  0  0  0  0  0  0
   -7.2376   -5.6951   -0.0998 H   0  0  0  0  0  0  0  0  0  0  0  0
   -8.0933   -5.1353   -2.3329 H   0  0  0  0  0  0  0  0  0  0  0  0
   -7.3815   -6.6443   -3.0161 H   0  0  0  0  0  0  0  0  0  0  0  0
   -6.3102   -5.3323   -2.3778 H   0  0  0  0  0  0  0  0  0  0  0  0
   -8.6731   -8.1756   -1.0906 H   0  0  0  0  0  0  0  0  0  0  0  0
  -11.2437   -5.5374    0.6966 H   0  0  0  0  0  0  0  0  0  0  0  0
   -8.7457   -3.9970   -0.1931 H   0  0  0  0  0  0  0  0  0  0  0  0
   -8.9940   -4.5532    1.5182 H   0  0  0  0  0  0  0  0  0  0  0  0
  -10.1614   -3.4290    0.7496 H   0  0  0  0  0  0  0  0  0  0  0  0
  -10.3344   -5.9888   -2.0473 H   0  0  0  0  0  0  0  0  0  0  0  0
  -13.2593   -3.1763   -2.1617 H   0  0  0  0  0  0  0  0  0  0  0  0
  -13.6571   -5.6102   -1.4635 H   0  0  0  0  0  0  0  0  0  0  0  0
  -14.6694   -4.3408   -0.6924 H   0  0  0  0  0  0  0  0  0  0  0  0
  -13.3358   -5.0810    0.2413 H   0  0  0  0  0  0  0  0  0  0  0  0
  -12.9130   -2.6808    0.6284 H   0  0  0  0  0  0  0  0  0  0  0  0
  -12.3164    0.7640   -1.0170 H   0  0  0  0  0  0  0  0  0  0  0  0
  -14.2739   -0.4987   -1.8989 H   0  0  0  0  0  0  0  0  0  0  0  0
  -14.7629    0.7239   -0.6712 H   0  0  0  0  0  0  0  0  0  0  0  0
  -14.7016   -1.0106   -0.2140 H   0  0  0  0  0  0  0  0  0  0  0  0
  -12.8399   -0.5011    1.6951 H   0  0  0  0  0  0  0  0  0  0  0  0
  -11.4153    2.4726    0.0894 H   0  0  0  0  0  0  0  0  0  0  0  0
  -13.7709    2.8423   -0.7134 H   0  0  0  0  0  0  0  0  0  0  0  0
  -14.0899    3.8996    0.7176 H   0  0  0  0  0  0  0  0  0  0  0  0
  -12.8790    4.3887   -0.5350 H   0  0  0  0  0  0  0  0  0  0  0  0
  -12.1449    4.0069    2.6217 H   0  0  0  0  0  0  0  0  0  0  0  0
  -10.2169    4.3575   -0.5455 H   0  0  0  0  0  0  0  0  0  0  0  0
  -11.5665    6.3005    0.3496 H   0  0  0  0  0  0  0  0  0  0  0  0
  -10.0523    6.9938    1.0638 H   0  0  0  0  0  0  0  0  0  0  0  0
  -10.2381    6.8287   -0.7316 H   0  0  0  0  0  0  0  0  0  0  0  0
   -7.7949    4.5007    0.9456 H   0  0  0  0  0  0  0  0  0  0  0  0
   -5.7897    6.7436   -1.0555 H   0  0  0  0  0  0  0  0  0  0  0  0
   -6.4130    8.9648   -0.1365 H   0  0  0  0  0  0  0  0  0  0  0  0
   -7.5367    8.4496   -1.4465 H   0  0  0  0  0  0  0  0  0  0  0  0
   -8.0577    8.3420    0.2859 H   0  0  0  0  0  0  0  0  0  0  0  0
   -6.8987    6.6243    1.7950 H   0  0  0  0  0  0  0  0  0  0  0  0
  1  2  1  0
  2  3  2  0
  2  4  1  0
  4  5  1  0
  5  6  1  0
  6  7  1  0
  7  8  1  0
  8  9  1  0
  9 10  2  0
 10 11  1  0
 11 12  2  0
 12 13  1  0
 13 14  2  0
 13 15  1  0
 15 16  1  0
 16 17  1  0
 17 18  1  0
 18 19  1  0
 19 20  1  0
 19 21  2  0
 18 22  1  0
 22 23  1  0
 23 24  2  0
 23 25  1  0
 25 26  1  0
 25 27  1  0
 27 28  1  0
 28 29  2  0
 28 30  1  0
 30 31  1  0
 30 32  1  0
 32 33  1  0
 33 34  2  0
 33 35  1  0
 35 36  1  0
 35 37  1  0
 37 38  1  0
 38 39  2  0
 38 40  1  0
 40 41  1  0
 40 42  1  0
 42 43  1  0
 43 44  2  0
 43 45  1  0
 45 46  1  0
 45 47  1  0
 47 48  1  0
 48 49  2  0
 48 50  1  0
 50 51  1  0
 50 52  1  0
 52 53  1  0
 53 54  2  0
 53 55  1  0
 55 56  1  0
 55 57  1  0
 57 58  1  0
 58 59  2  0
 58 60  1  0
 60 61  1  0
 60 62  1  0
 62 63  1  0
 63 64  2  0
 63 65  1  0
 65 66  1  0
 65 67  1  0
 67 68  1  0
 68 69  2  0
 68 70  1  0
 70 71  1  0
 71 72  1  0
 72 73  1  0
 70 74  1  0
 74 75  1  0
 75 76  2  0
 75 77  1  0
 77 78  1  0
 77 79  1  0
 79 80  1  0
 80 81  2  0
 80 82  1  0
 82 83  1  0
 82 84  1  0
 84 85  1  0
 85 86  2  0
 85 87  1  0
 87 88  1  0
 87 89  1  0
 89 90  1  0
 90 91  2  0
 90 92  1  0
 92 93  1  0
 92 94  1  0
 94 95  1  0
 95 96  2  0
 95 97  1  0
 97 98  1  0
 97 99  1  0
 99100  1  0
100101  2  0
100102  1  0
102103  1  0
102104  1  0
104105  1  0
105106  2  0
105107  1  0
107108  1  0
107109  1  0
109110  1  0
110111  2  0
110112  1  0
112113  1  0
112114  1  0
114115  1  0
115116  2  0
115117  1  0
117118  1  0
117119  1  0
119120  1  0
120121  2  0
120  5  1  0
 14  9  1  0
 73 11  1  0
  1122  1  0
  1123  1  0
  1124  1  0
  4125  1  0
  5126  1  1
  6127  1  0
  6128  1  0
  8129  1  0
  8130  1  0
 10131  1  0
 12132  1  0
 14133  1  0
 15134  1  0
 15135  1  0
 17136  1  0
 17137  1  0
 18138  1  6
 20139  1  0
 20140  1  0
 22141  1  0
 25142  1  6
 26143  1  0
 26144  1  0
 26145  1  0
 27146  1  0
 30147  1  6
 31148  1  0
 31149  1  0
 31150  1  0
 32151  1  0
 35152  1  6
 36153  1  0
 36154  1  0
 36155  1  0
 37156  1  0
 40157  1  6
 41158  1  0
 41159  1  0
 41160  1  0
 42161  1  0
 45162  1  6
 46163  1  0
 46164  1  0
 46165  1  0
 47166  1  0
 50167  1  6
 51168  1  0
 51169  1  0
 51170  1  0
 52171  1  0
 55172  1  6
 56173  1  0
 56174  1  0
 56175  1  0
 57176  1  0
 60177  1  6
 61178  1  0
 61179  1  0
 61180  1  0
 62181  1  0
 65182  1  6
 66183  1  0
 66184  1  0
 66185  1  0
 67186  1  0
 70187  1  1
 71188  1  0
 71189  1  0
 73190  1  0
 73191  1  0
 74192  1  0
 77193  1  1
 78194  1  0
 78195  1  0
 78196  1  0
 79197  1  0
 82198  1  1
 83199  1  0
 83200  1  0
 83201  1  0
 84202  1  0
 87203  1  1
 88204  1  0
 88205  1  0
 88206  1  0
 89207  1  0
 92208  1  1
 93209  1  0
 93210  1  0
 93211  1  0
 94212  1  0
 97213  1  6
 98214  1  0
 98215  1  0
 98216  1  0
 99217  1  0
102218  1  6
103219  1  0
103220  1  0
103221  1  0
104222  1  0
107223  1  6
108224  1  0
108225  1  0
108226  1  0
109227  1  0
112228  1  6
113229  1  0
113230  1  0
113231  1  0
114232  1  0
117233  1  6
118234  1  0
118235  1  0
118236  1  0
119237  1  0
M  END
