
     RDKit          3D

227229  0  0  0  0  0  0  0  0999 V2000
   -3.3367   -8.9532    2.6552 C   0  0  0  0  0  0  0  0  0  0  0  0
   -3.7310   -7.6218    2.0845 C   0  0  0  0  0  0  0  0  0  0  0  0
   -4.2101   -6.7469    2.8474 O   0  0  0  0  0  0  0  0  0  0  0  0
   -3.6169   -7.3710    0.6807 N   0  0  0  0  0  0  0  0  0  0  0  0
   -3.9253   -6.0762    0.0672 C   0  0  1  0  0  0  0  0  0  0  0  0
   -2.6467   -5.2371   -0.1270 C   0  0  0  0  0  0  0  0  0  0  0  0
   -1.3133   -6.1643   -0.9771 S   0  0  0  0  0  0  0  0  0  0  0  0
   -0.9588   -4.9325   -2.2794 C   0  0  0  0  0  0  0  0  0  0  0  0
   -0.2130   -3.7375   -1.7473 C   0  0  0  0  0  0  0  0  0  0  0  0
   -0.6540   -2.4383   -2.0543 C   0  0  0  0  0  0  0  0  0  0  0  0
    0.1469   -1.3231   -1.7528 C   0  0  0  0  0  0  0  0  0  0  0  0
    1.3808   -1.5174   -1.1093 C   0  0  0  0  0  0  0  0  0  0  0  0
    1.8013   -2.8036   -0.7330 C   0  0  0  0  0  0  0  0  0  0  0  0
    1.0019   -3.9069   -1.0663 C   0  0  0  0  0  0  0  0  0  0  0  0
    3.1086   -2.9915   -0.0137 C   0  0  0  0  0  0  0  0  0  0  0  0
    4.3586   -3.6886   -1.1578 S   0  0  0  0  0  0  0  0  0  0  0  0
    4.4640   -5.3489   -0.3920 C   0  0  0  0  0  0  0  0  0  0  0  0
    5.5013   -5.3713    0.7444 C   0  0  1  0  0  0  0  0  0  0  0  0
    5.3161   -6.6084    1.5765 C   0  0  0  0  0  0  0  0  0  0  0  0
    5.5253   -7.9026    1.0132 N   0  0  0  0  0  0  0  0  0  0  0  0
    5.0486   -6.5030    2.8048 O   0  0  0  0  0  0  0  0  0  0  0  0
    6.8661   -5.3319    0.2076 N   0  0  0  0  0  0  0  0  0  0  0  0
    8.0092   -5.4145    1.0713 C   0  0  0  0  0  0  0  0  0  0  0  0
    7.9466   -4.9102    2.2235 O   0  0  0  0  0  0  0  0  0  0  0  0
    9.2539   -6.1775    0.6750 C   0  0  1  0  0  0  0  0  0  0  0  0
    9.1494   -6.8544   -0.7058 C   0  0  0  0  0  0  0  0  0  0  0  0
   10.4318   -5.3069    0.8095 N   0  0  0  0  0  0  0  0  0  0  0  0
   11.3205   -4.9727   -0.2637 C   0  0  0  0  0  0  0  0  0  0  0  0
   12.3716   -5.6454   -0.4145 O   0  0  0  0  0  0  0  0  0  0  0  0
   10.9909   -3.8576   -1.2376 C   0  0  1  0  0  0  0  0  0  0  0  0
    9.9508   -2.8742   -0.6972 C   0  0  0  0  0  0  0  0  0  0  0  0
   12.2120   -3.1527   -1.6809 N   0  0  0  0  0  0  0  0  0  0  0  0
   13.2708   -2.7157   -0.8122 C   0  0  0  0  0  0  0  0  0  0  0  0
   14.4487   -3.0825   -1.0591 O   0  0  0  0  0  0  0  0  0  0  0  0
   13.0245   -1.7512    0.3220 C   0  0  1  0  0  0  0  0  0  0  0  0
   13.1377   -2.4707    1.6665 C   0  0  0  0  0  0  0  0  0  0  0  0
   13.9977   -0.6551    0.2659 N   0  0  0  0  0  0  0  0  0  0  0  0
   13.6695    0.7318    0.0828 C   0  0  0  0  0  0  0  0  0  0  0  0
   14.3556    1.5926    0.6991 O   0  0  0  0  0  0  0  0  0  0  0  0
   12.5725    1.2234   -0.8366 C   0  0  1  0  0  0  0  0  0  0  0  0
   12.4566    0.4124   -2.1265 C   0  0  0  0  0  0  0  0  0  0  0  0
   11.2850    1.2841   -0.1343 N   0  0  0  0  0  0  0  0  0  0  0  0
   11.0113    2.2622    0.8752 C   0  0  0  0  0  0  0  0  0  0  0  0
   10.9488    1.8912    2.0790 O   0  0  0  0  0  0  0  0  0  0  0  0
   10.7518    3.7160    0.5352 C   0  0  1  0  0  0  0  0  0  0  0  0
   12.0623    4.4847    0.3271 C   0  0  0  0  0  0  0  0  0  0  0  0
    9.8919    3.8201   -0.6526 N   0  0  0  0  0  0  0  0  0  0  0  0
    8.8691    4.8174   -0.8422 C   0  0  0  0  0  0  0  0  0  0  0  0
    8.0366    4.6557   -1.7791 O   0  0  0  0  0  0  0  0  0  0  0  0
    8.7364    6.0313    0.0539 C   0  0  1  0  0  0  0  0  0  0  0  0
    8.4263    7.2858   -0.7747 C   0  0  0  0  0  0  0  0  0  0  0  0
    7.7131    5.8752    1.0978 N   0  0  0  0  0  0  0  0  0  0  0  0
    6.6764    4.8710    1.1003 C   0  0  0  0  0  0  0  0  0  0  0  0
    6.9777    3.6655    0.9146 O   0  0  0  0  0  0  0  0  0  0  0  0
    5.2146    5.2421    1.2273 C   0  0  1  0  0  0  0  0  0  0  0  0
    4.9859    6.5919    1.9116 C   0  0  0  0  0  0  0  0  0  0  0  0
    4.6121    5.2682   -0.1072 N   0  0  0  0  0  0  0  0  0  0  0  0
    3.2700    4.8408   -0.4030 C   0  0  0  0  0  0  0  0  0  0  0  0
    2.5658    5.5620   -1.1643 O   0  0  0  0  0  0  0  0  0  0  0  0
    2.6756    3.5427    0.0985 C   0  0  1  0  0  0  0  0  0  0  0  0
    3.6995    2.3955    0.1728 C   0  0  0  0  0  0  0  0  0  0  0  0
    2.0174    3.7435    1.3885 N   0  0  0  0  0  0  0  0  0  0  0  0
    0.8762    2.9811    1.8217 C   0  0  0  0  0  0  0  0  0  0  0  0
    0.8255    2.6004    3.0163 O   0  0  0  0  0  0  0  0  0  0  0  0
   -0.2495    2.6254    0.8772 C   0  0  1  0  0  0  0  0  0  0  0  0
   -0.0661    1.2125    0.3253 C   0  0  0  0  0  0  0  0  0  0  0  0
   -1.3780    0.8060   -0.8894 S   0  0  0  0  0  0  0  0  0  0  0  0
   -0.2956    0.0564   -2.1616 C   0  0  0  0  0  0  0  0  0  0  0  0
   -1.5359    2.7116    1.5869 N   0  0  0  0  0  0  0  0  0  0  0  0
   -2.6628    3.4838    1.1409 C   0  0  0  0  0  0  0  0  0  0  0  0
   -3.8241    3.0831    1.4332 O   0  0  0  0  0  0  0  0  0  0  0  0
   -2.5053    4.7268    0.2869 C   0  0  1  0  0  0  0  0  0  0  0  0
   -2.7619    4.3830   -1.1814 C   0  0  0  0  0  0  0  0  0  0  0  0
   -3.4502    5.7725    0.7173 N   0  0  0  0  0  0  0  0  0  0  0  0
   -3.3550    7.1157    0.2326 C   0  0  0  0  0  0  0  0  0  0  0  0
   -2.2476    7.5536   -0.2065 O   0  0  0  0  0  0  0  0  0  0  0  0
   -4.5772    7.9853    0.1954 C   0  0  1  0  0  0  0  0  0  0  0  0
   -4.2320    9.4665    0.3971 C   0  0  0  0  0  0  0  0  0  0  0  0
   -5.2571    7.8068   -1.0896 N   0  0  0  0  0  0  0  0  0  0  0  0
   -6.5840    7.2800   -1.2519 C   0  0  0  0  0  0  0  0  0  0  0  0
   -7.2674    7.6748   -2.2356 O   0  0  0  0  0  0  0  0  0  0  0  0
   -7.1901    6.2964   -0.2686 C   0  0  1  0  0  0  0  0  0  0  0  0
   -8.1979    6.9882    0.6514 C   0  0  0  0  0  0  0  0  0  0  0  0
   -7.8068    5.1487   -0.9504 N   0  0  0  0  0  0  0  0  0  0  0  0
   -8.8230    5.2475   -1.9552 C   0  0  0  0  0  0  0  0  0  0  0  0
   -8.4841    5.2885   -3.1724 O   0  0  0  0  0  0  0  0  0  0  0  0
  -10.2885    5.2082   -1.5910 C   0  0  1  0  0  0  0  0  0  0  0  0
  -10.9756    6.5048   -2.0307 C   0  0  0  0  0  0  0  0  0  0  0  0
  -10.9312    4.0686   -2.2621 N   0  0  0  0  0  0  0  0  0  0  0  0
  -12.0153    3.2885   -1.7240 C   0  0  0  0  0  0  0  0  0  0  0  0
  -12.7851    2.6942   -2.5296 O   0  0  0  0  0  0  0  0  0  0  0  0
  -12.2526    3.1423   -0.2395 C   0  0  1  0  0  0  0  0  0  0  0  0
  -13.1469    4.2652    0.2871 C   0  0  0  0  0  0  0  0  0  0  0  0
  -12.8832    1.8476    0.0425 N   0  0  0  0  0  0  0  0  0  0  0  0
  -12.3875    0.9766    1.0536 C   0  0  0  0  0  0  0  0  0  0  0  0
  -12.7815    1.1252    2.2450 O   0  0  0  0  0  0  0  0  0  0  0  0
  -11.4042   -0.1093    0.7067 C   0  0  1  0  0  0  0  0  0  0  0  0
   -9.9883    0.3119    1.1021 C   0  0  0  0  0  0  0  0  0  0  0  0
  -11.7620   -1.3497    1.3997 N   0  0  0  0  0  0  0  0  0  0  0  0
  -12.0480   -2.5734    0.7138 C   0  0  0  0  0  0  0  0  0  0  0  0
  -13.2441   -2.9612    0.6181 O   0  0  0  0  0  0  0  0  0  0  0  0
  -10.9457   -3.4277    0.1303 C   0  0  1  0  0  0  0  0  0  0  0  0
  -10.5526   -2.9288   -1.2652 C   0  0  0  0  0  0  0  0  0  0  0  0
   -9.7758   -3.4631    1.0138 N   0  0  0  0  0  0  0  0  0  0  0  0
   -8.6468   -4.3347    0.8253 C   0  0  0  0  0  0  0  0  0  0  0  0
   -7.4904   -3.8427    0.9305 O   0  0  0  0  0  0  0  0  0  0  0  0
   -8.7742   -5.8270    0.6269 C   0  0  1  0  0  0  0  0  0  0  0  0
   -9.6899   -6.4530    1.6854 C   0  0  0  0  0  0  0  0  0  0  0  0
   -9.2352   -6.1674   -0.7234 N   0  0  0  0  0  0  0  0  0  0  0  0
   -8.4482   -6.9295   -1.6557 C   0  0  0  0  0  0  0  0  0  0  0  0
   -8.9445   -7.9782   -2.1583 O   0  0  0  0  0  0  0  0  0  0  0  0
   -7.0826   -6.4756   -2.1227 C   0  0  1  0  0  0  0  0  0  0  0  0
   -7.1116   -4.9785   -2.4800 C   0  0  0  0  0  0  0  0  0  0  0  0
   -6.0574   -6.7722   -1.1171 N   0  0  0  0  0  0  0  0  0  0  0  0
   -4.7112   -6.2964   -1.2016 C   0  0  0  0  0  0  0  0  0  0  0  0
   -4.2059   -6.0369   -2.3311 O   0  0  0  0  0  0  0  0  0  0  0  0
   -2.5403   -8.7998    3.4131 H   0  0  0  0  0  0  0  0  0  0  0  0
   -4.2222   -9.4264    3.1256 H   0  0  0  0  0  0  0  0  0  0  0  0
   -2.9465   -9.6209    1.8609 H   0  0  0  0  0  0  0  0  0  0  0  0
   -3.1872   -8.1095    0.0788 H   0  0  0  0  0  0  0  0  0  0  0  0
   -4.5938   -5.4924    0.7427 H   0  0  0  0  0  0  0  0  0  0  0  0
   -2.9017   -4.2928   -0.6573 H   0  0  0  0  0  0  0  0  0  0  0  0
   -2.2557   -4.9451    0.8726 H   0  0  0  0  0  0  0  0  0  0  0  0
   -1.9060   -4.6395   -2.7819 H   0  0  0  0  0  0  0  0  0  0  0  0
   -0.3216   -5.4236   -3.0498 H   0  0  0  0  0  0  0  0  0  0  0  0
   -1.5922   -2.3008   -2.5807 H   0  0  0  0  0  0  0  0  0  0  0  0
    2.0248   -0.6702   -0.9123 H   0  0  0  0  0  0  0  0  0  0  0  0
    1.3475   -4.9007   -0.8127 H   0  0  0  0  0  0  0  0  0  0  0  0
    3.4950   -2.0122    0.3428 H   0  0  0  0  0  0  0  0  0  0  0  0
    2.9581   -3.6224    0.8898 H   0  0  0  0  0  0  0  0  0  0  0  0
    3.4632   -5.6693   -0.0263 H   0  0  0  0  0  0  0  0  0  0  0  0
    4.7593   -6.0760   -1.1809 H   0  0  0  0  0  0  0  0  0  0  0  0
    5.3368   -4.4773    1.3912 H   0  0  0  0  0  0  0  0  0  0  0  0
    5.6631   -8.0202   -0.0185 H   0  0  0  0  0  0  0  0  0  0  0  0
    5.4697   -8.7563    1.6099 H   0  0  0  0  0  0  0  0  0  0  0  0
    7.0092   -5.2512   -0.8294 H   0  0  0  0  0  0  0  0  0  0  0  0
    9.3593   -7.0092    1.4110 H   0  0  0  0  0  0  0  0  0  0  0  0
   10.0374   -7.4952   -0.8853 H   0  0  0  0  0  0  0  0  0  0  0  0
    8.2501   -7.5119   -0.7350 H   0  0  0  0  0  0  0  0  0  0  0  0
    9.0691   -6.1069   -1.5195 H   0  0  0  0  0  0  0  0  0  0  0  0
   10.7970   -5.1687    1.7796 H   0  0  0  0  0  0  0  0  0  0  0  0
   10.5409   -4.3381   -2.1332 H   0  0  0  0  0  0  0  0  0  0  0  0
   10.1582   -2.5934    0.3588 H   0  0  0  0  0  0  0  0  0  0  0  0
    9.9180   -1.9594   -1.3268 H   0  0  0  0  0  0  0  0  0  0  0  0
    8.9439   -3.3400   -0.7356 H   0  0  0  0  0  0  0  0  0  0  0  0
   12.4624   -3.2627   -2.6891 H   0  0  0  0  0  0  0  0  0  0  0  0
   12.0052   -1.3415    0.2502 H   0  0  0  0  0  0  0  0  0  0  0  0
   13.0119   -1.7420    2.4966 H   0  0  0  0  0  0  0  0  0  0  0  0
   12.3416   -3.2406    1.7563 H   0  0  0  0  0  0  0  0  0  0  0  0
   14.1283   -2.9666    1.7671 H   0  0  0  0  0  0  0  0  0  0  0  0
   14.9928   -0.8777    0.5126 H   0  0  0  0  0  0  0  0  0  0  0  0
   12.8428    2.2436   -1.1600 H   0  0  0  0  0  0  0  0  0  0  0  0
   13.4673    0.1940   -2.5389 H   0  0  0  0  0  0  0  0  0  0  0  0
   11.8905    0.9967   -2.8871 H   0  0  0  0  0  0  0  0  0  0  0  0
   11.9109   -0.5396   -1.9716 H   0  0  0  0  0  0  0  0  0  0  0  0
   10.6784    0.4306   -0.1287 H   0  0  0  0  0  0  0  0  0  0  0  0
   10.2294    4.1588    1.4146 H   0  0  0  0  0  0  0  0  0  0  0  0
   11.9026    5.5633    0.5078 H   0  0  0  0  0  0  0  0  0  0  0  0
   12.4291    4.3741   -0.7141 H   0  0  0  0  0  0  0  0  0  0  0  0
   12.8436    4.1320    1.0336 H   0  0  0  0  0  0  0  0  0  0  0  0
   10.0561    3.1547   -1.4417 H   0  0  0  0  0  0  0  0  0  0  0  0
    9.6997    6.2248    0.5550 H   0  0  0  0  0  0  0  0  0  0  0  0
    9.1732    7.4109   -1.5865 H   0  0  0  0  0  0  0  0  0  0  0  0
    8.4688    8.1876   -0.1249 H   0  0  0  0  0  0  0  0  0  0  0  0
    7.4120    7.2289   -1.2207 H   0  0  0  0  0  0  0  0  0  0  0  0
    7.6130    6.6747    1.7644 H   0  0  0  0  0  0  0  0  0  0  0  0
    4.7339    4.4784    1.8676 H   0  0  0  0  0  0  0  0  0  0  0  0
    3.8948    6.7733    2.0241 H   0  0  0  0  0  0  0  0  0  0  0  0
    5.4162    7.4215    1.3061 H   0  0  0  0  0  0  0  0  0  0  0  0
    5.4432    6.5929    2.9257 H   0  0  0  0  0  0  0  0  0  0  0  0
    5.0532    5.9175   -0.7983 H   0  0  0  0  0  0  0  0  0  0  0  0
    1.9229    3.2319   -0.6575 H   0  0  0  0  0  0  0  0  0  0  0  0
    4.2924    2.3430   -0.7686 H   0  0  0  0  0  0  0  0  0  0  0  0
    4.3864    2.5031    1.0309 H   0  0  0  0  0  0  0  0  0  0  0  0
    3.1709    1.4293    0.3014 H   0  0  0  0  0  0  0  0  0  0  0  0
    2.5260    4.2805    2.1232 H   0  0  0  0  0  0  0  0  0  0  0  0
   -0.2290    3.3296    0.0202 H   0  0  0  0  0  0  0  0  0  0  0  0
   -0.1094    0.4667    1.1478 H   0  0  0  0  0  0  0  0  0  0  0  0
    0.9334    1.1474   -0.1408 H   0  0  0  0  0  0  0  0  0  0  0  0
   -0.8623   -0.0042   -3.1126 H   0  0  0  0  0  0  0  0  0  0  0  0
    0.5768    0.7151   -2.3669 H   0  0  0  0  0  0  0  0  0  0  0  0
   -1.7075    2.0210    2.3503 H   0  0  0  0  0  0  0  0  0  0  0  0
   -1.4784    5.1250    0.4074 H   0  0  0  0  0  0  0  0  0  0  0  0
   -2.0074    3.6535   -1.5457 H   0  0  0  0  0  0  0  0  0  0  0  0
   -2.6812    5.2967   -1.8056 H   0  0  0  0  0  0  0  0  0  0  0  0
   -3.7738    3.9520   -1.3125 H   0  0  0  0  0  0  0  0  0  0  0  0
   -4.2224    5.5450    1.3797 H   0  0  0  0  0  0  0  0  0  0  0  0
   -5.2399    7.7019    1.0358 H   0  0  0  0  0  0  0  0  0  0  0  0
   -5.1633   10.0687    0.4559 H   0  0  0  0  0  0  0  0  0  0  0  0
   -3.6755    9.6040    1.3505 H   0  0  0  0  0  0  0  0  0  0  0  0
   -3.6072    9.8489   -0.4408 H   0  0  0  0  0  0  0  0  0  0  0  0
   -4.7820    8.1757   -1.9436 H   0  0  0  0  0  0  0  0  0  0  0  0
   -6.3833    5.8799    0.3724 H   0  0  0  0  0  0  0  0  0  0  0  0
   -8.9135    7.6029    0.0684 H   0  0  0  0  0  0  0  0  0  0  0  0
   -7.6695    7.6571    1.3623 H   0  0  0  0  0  0  0  0  0  0  0  0
   -8.7596    6.2291    1.2388 H   0  0  0  0  0  0  0  0  0  0  0  0
   -7.4140    4.1975   -0.7688 H   0  0  0  0  0  0  0  0  0  0  0  0
  -10.3783    5.1138   -0.4883 H   0  0  0  0  0  0  0  0  0  0  0  0
  -10.5778    7.3703   -1.4639 H   0  0  0  0  0  0  0  0  0  0  0  0
  -12.0682    6.4439   -1.8401 H   0  0  0  0  0  0  0  0  0  0  0  0
  -10.8210    6.6884   -3.1173 H   0  0  0  0  0  0  0  0  0  0  0  0
  -10.7540    3.9617   -3.2862 H   0  0  0  0  0  0  0  0  0  0  0  0
  -11.2770    3.1885    0.2931 H   0  0  0  0  0  0  0  0  0  0  0  0
  -14.1068    4.3018   -0.2786 H   0  0  0  0  0  0  0  0  0  0  0  0
  -13.3710    4.0953    1.3630 H   0  0  0  0  0  0  0  0  0  0  0  0
  -12.6431    5.2492    0.1957 H   0  0  0  0  0  0  0  0  0  0  0  0
  -13.8305    1.6461   -0.3490 H   0  0  0  0  0  0  0  0  0  0  0  0
  -11.4364   -0.2691   -0.3926 H   0  0  0  0  0  0  0  0  0  0  0  0
   -9.9053    0.4133    2.2024 H   0  0  0  0  0  0  0  0  0  0  0  0
   -9.7256    1.2776    0.6234 H   0  0  0  0  0  0  0  0  0  0  0  0
   -9.2600   -0.4538    0.7601 H   0  0  0  0  0  0  0  0  0  0  0  0
  -11.9353   -1.3266    2.4292 H   0  0  0  0  0  0  0  0  0  0  0  0
  -11.3551   -4.4528    0.0255 H   0  0  0  0  0  0  0  0  0  0  0  0
  -11.4570   -2.7920   -1.8967 H   0  0  0  0  0  0  0  0  0  0  0  0
   -9.8949   -3.6718   -1.7636 H   0  0  0  0  0  0  0  0  0  0  0  0
  -10.0009   -1.9673   -1.1995 H   0  0  0  0  0  0  0  0  0  0  0  0
   -9.6148   -2.6573    1.6569 H   0  0  0  0  0  0  0  0  0  0  0  0
   -7.7797   -6.2706    0.8003 H   0  0  0  0  0  0  0  0  0  0  0  0
   -9.7420   -7.5518    1.5264 H   0  0  0  0  0  0  0  0  0  0  0  0
  -10.7189   -6.0395    1.6362 H   0  0  0  0  0  0  0  0  0  0  0  0
   -9.2795   -6.2637    2.6995 H   0  0  0  0  0  0  0  0  0  0  0  0
  -10.2641   -6.1599   -0.9041 H   0  0  0  0  0  0  0  0  0  0  0  0
   -6.8264   -7.0324   -3.0525 H   0  0  0  0  0  0  0  0  0  0  0  0
   -7.0942   -4.3525   -1.5679 H   0  0  0  0  0  0  0  0  0  0  0  0
   -6.2320   -4.7152   -3.1026 H   0  0  0  0  0  0  0  0  0  0  0  0
   -8.0218   -4.7354   -3.0717 H   0  0  0  0  0  0  0  0  0  0  0  0
   -6.2882   -7.4100   -0.3226 H   0  0  0  0  0  0  0  0  0  0  0  0
  1  2  1  0
  2  3  2  0
  2  4  1  0
  4  5  1  0
  5  6  1  0
  6  7  1  0
  7  8  1  0
  8  9  1  0
  9 10  1  0
 10 11  2  0
 11 12  1  0
 12 13  2  0
 13 14  1  0
 13 15  1  0
 15 16  1  0
 16 17  1  0
 17 18  1  0
 18 19  1  0
 19 20  1  0
 19 21  2  0
 18 22  1  0
 22 23  1  0
 23 24  2  0
 23 25  1  0
 25 26  1  0
 25 27  1  0
 27 28  1  0
 28 29  2  0
 28 30  1  0
 30 31  1  0
 30 32  1  0
 32 33  1  0
 33 34  2  0
 33 35  1  0
 35 36  1  0
 35 37  1  0
 37 38  1  0
 38 39  2  0
 38 40  1  0
 40 41  1  0
 40 42  1  0
 42 43  1  0
 43 44  2  0
 43 45  1  0
 45 46  1  0
 45 47  1  0
 47 48  1  0
 48 49  2  0
 48 50  1  0
 50 51  1  0
 50 52  1  0
 52 53  1  0
 53 54  2  0
 53 55  1  0
 55 56  1  0
 55 57  1  0
 57 58  1  0
 58 59  2  0
 58 60  1  0
 60 61  1  0
 60 62  1  0
 62 63  1  0
 63 64  2  0
 63 65  1  0
 65 66  1  0
 66 67  1  0
 67 68  1  0
 65 69  1  0
 69 70  1  0
 70 71  2  0
 70 72  1  0
 72 73  1  0
 72 74  1  0
 74 75  1  0
 75 76  2  0
 75 77  1  0
 77 78  1  0
 77 79  1  0
 79 80  1  0
 80 81  2  0
 80 82  1  0
 82 83  1  0
 82 84  1  0
 84 85  1  0
 85 86  2  0
 85 87  1  0
 87 88  1  0
 87 89  1  0
 89 90  1  0
 90 91  2  0
 90 92  1  0
 92 93  1  0
 92 94  1  0
 94 95  1  0
 95 96  2  0
 95 97  1  0
 97 98  1  0
 97 99  1  0
 99100  1  0
100101  2  0
100102  1  0
102103  1  0
102104  1  0
104105  1  0
105106  2  0
105107  1  0
107108  1  0
107109  1  0
109110  1  0
110111  2  0
110112  1  0
112113  1  0
112114  1  0
114115  1  0
115116  2  0
115  5  1  0
 14  9  2  0
 68 11  1  0
  1117  1  0
  1118  1  0
  1119  1  0
  4120  1  0
  5121  1  1
  6122  1  0
  6123  1  0
  8124  1  0
  8125  1  0
 10126  1  0
 12127  1  0
 14128  1  0
 15129  1  0
 15130  1  0
 17131  1  0
 17132  1  0
 18133  1  1
 20134  1  0
 20135  1  0
 22136  1  0
 25137  1  1
 26138  1  0
 26139  1  0
 26140  1  0
 27141  1  0
 30142  1  6
 31143  1  0
 31144  1  0
 31145  1  0
 32146  1  0
 35147  1  6
 36148  1  0
 36149  1  0
 36150  1  0
 37151  1  0
 40152  1  6
 41153  1  0
 41154  1  0
 41155  1  0
 42156  1  0
 45157  1  1
 46158  1  0
 46159  1  0
 46160  1  0
 47161  1  0
 50162  1  1
 51163  1  0
 51164  1  0
 51165  1  0
 52166  1  0
 55167  1  1
 56168  1  0
 56169  1  0
 56170  1  0
 57171  1  0
 60172  1  6
 61173  1  0
 61174  1  0
 61175  1  0
 62176  1  0
 65177  1  6
 66178  1  0
 66179  1  0
 68180  1  0
 68181  1  0
 69182  1  0
 72183  1  6
 73184  1  0
 73185  1  0
 73186  1  0
 74187  1  0
 77188  1  1
 78189  1  0
 78190  1  0
 78191  1  0
 79192  1  0
 82193  1  1
 83194  1  0
 83195  1  0
 83196  1  0
 84197  1  0
 87198  1  1
 88199  1  0
 88200  1  0
 88201  1  0
 89202  1  0
 92203  1  1
 93204  1  0
 93205  1  0
 93206  1  0
 94207  1  0
 97208  1  6
 98209  1  0
 98210  1  0
 98211  1  0
 99212  1  0
102213  1  6
103214  1  0
103215  1  0
103216  1  0
104217  1  0
107218  1  1
108219  1  0
108220  1  0
108221  1  0
109222  1  0
112223  1  6
113224  1  0
113225  1  0
113226  1  0
114227  1  0
M  END
