
     RDKit          3D

237239  0  0  0  0  0  0  0  0999 V2000
    5.3090   -9.9215    0.5406 C   0  0  0  0  0  0  0  0  0  0  0  0
    4.8021   -8.8000    1.4041 C   0  0  0  0  0  0  0  0  0  0  0  0
    4.5161   -9.0366    2.6095 O   0  0  0  0  0  0  0  0  0  0  0  0
    4.6601   -7.4563    0.9068 N   0  0  0  0  0  0  0  0  0  0  0  0
    4.6128   -7.1138   -0.5163 C   0  0  1  0  0  0  0  0  0  0  0  0
    3.1457   -6.9184   -0.9887 C   0  0  0  0  0  0  0  0  0  0  0  0
    2.0442   -6.0660    0.2182 S   0  0  0  0  0  0  0  0  0  0  0  0
    2.1174   -4.3942   -0.5124 C   0  0  0  0  0  0  0  0  0  0  0  0
    1.0775   -3.4921    0.0927 C   0  0  0  0  0  0  0  0  0  0  0  0
   -0.2826   -3.6600   -0.2129 C   0  0  0  0  0  0  0  0  0  0  0  0
   -1.2388   -2.7495    0.2632 C   0  0  0  0  0  0  0  0  0  0  0  0
   -0.8199   -1.6628    1.0473 C   0  0  0  0  0  0  0  0  0  0  0  0
    0.5305   -1.4910    1.3761 C   0  0  0  0  0  0  0  0  0  0  0  0
    1.4744   -2.4134    0.9060 C   0  0  0  0  0  0  0  0  0  0  0  0
    0.9558   -0.3682    2.2894 C   0  0  0  0  0  0  0  0  0  0  0  0
    2.2066    0.7024    1.4941 S   0  0  0  0  0  0  0  0  0  0  0  0
    1.0999    1.5609    0.3088 C   0  0  0  0  0  0  0  0  0  0  0  0
    0.8003    3.0059    0.7478 C   0  0  1  0  0  0  0  0  0  0  0  0
    0.6045    3.8412   -0.4481 N   0  0  0  0  0  0  0  0  0  0  0  0
    1.4966    4.8758   -0.9071 C   0  0  0  0  0  0  0  0  0  0  0  0
    1.5459    5.1178   -2.1425 O   0  0  0  0  0  0  0  0  0  0  0  0
    2.3459    5.7318    0.0202 C   0  0  1  0  0  0  0  0  0  0  0  0
    1.4762    6.3581    1.1241 C   0  0  0  0  0  0  0  0  0  0  0  0
    3.4778    4.9684    0.5719 N   0  0  0  0  0  0  0  0  0  0  0  0
    4.4748    5.5026    1.4608 C   0  0  0  0  0  0  0  0  0  0  0  0
    5.0463    4.7123    2.2709 O   0  0  0  0  0  0  0  0  0  0  0  0
    4.9145    6.9574    1.4249 C   0  0  1  0  0  0  0  0  0  0  0  0
    4.8156    7.5779    2.8265 C   0  0  0  0  0  0  0  0  0  0  0  0
    6.2883    7.1225    0.9137 N   0  0  0  0  0  0  0  0  0  0  0  0
    7.2100    6.0451    0.6871 C   0  0  0  0  0  0  0  0  0  0  0  0
    6.8943    5.1218   -0.1054 O   0  0  0  0  0  0  0  0  0  0  0  0
    8.5730    6.0249    1.3440 C   0  0  1  0  0  0  0  0  0  0  0  0
    8.5611    6.7672    2.6889 C   0  0  0  0  0  0  0  0  0  0  0  0
    8.9795    4.6315    1.5890 N   0  0  0  0  0  0  0  0  0  0  0  0
   10.3504    4.2088    1.6812 C   0  0  0  0  0  0  0  0  0  0  0  0
   10.6498    3.2978    2.4987 O   0  0  0  0  0  0  0  0  0  0  0  0
   11.4401    4.8217    0.8308 C   0  0  1  0  0  0  0  0  0  0  0  0
   12.1387    5.9585    1.5766 C   0  0  0  0  0  0  0  0  0  0  0  0
   12.4319    3.8004    0.4853 N   0  0  0  0  0  0  0  0  0  0  0  0
   12.8265    3.5050   -0.8633 C   0  0  0  0  0  0  0  0  0  0  0  0
   14.0542    3.3619   -1.1159 O   0  0  0  0  0  0  0  0  0  0  0  0
   11.8031    3.3137   -1.9648 C   0  0  1  0  0  0  0  0  0  0  0  0
   12.1326    4.1958   -3.1666 C   0  0  0  0  0  0  0  0  0  0  0  0
   11.6774    1.9123   -2.3966 N   0  0  0  0  0  0  0  0  0  0  0  0
   12.4207    0.8164   -1.8550 C   0  0  0  0  0  0  0  0  0  0  0  0
   13.6686    0.7733   -2.0112 O   0  0  0  0  0  0  0  0  0  0  0  0
   11.7286   -0.3020   -1.1075 C   0  0  1  0  0  0  0  0  0  0  0  0
   10.7939    0.2683   -0.0366 C   0  0  0  0  0  0  0  0  0  0  0  0
   10.9620   -1.1407   -2.0343 N   0  0  0  0  0  0  0  0  0  0  0  0
   10.9499   -2.5819   -2.0244 C   0  0  0  0  0  0  0  0  0  0  0  0
   10.0041   -3.1695   -2.6103 O   0  0  0  0  0  0  0  0  0  0  0  0
   12.0406   -3.4094   -1.3733 C   0  0  1  0  0  0  0  0  0  0  0  0
   11.8006   -3.5913    0.1342 C   0  0  0  0  0  0  0  0  0  0  0  0
   12.2017   -4.7047   -2.0645 N   0  0  0  0  0  0  0  0  0  0  0  0
   11.7530   -5.9808   -1.5747 C   0  0  0  0  0  0  0  0  0  0  0  0
   12.6007   -6.9044   -1.4465 O   0  0  0  0  0  0  0  0  0  0  0  0
   10.2972   -6.2690   -1.2904 C   0  0  1  0  0  0  0  0  0  0  0  0
    9.8338   -7.4582   -2.1501 C   0  0  0  0  0  0  0  0  0  0  0  0
   10.1023   -6.5659    0.1347 N   0  0  0  0  0  0  0  0  0  0  0  0
    8.8196   -6.8482    0.7255 C   0  0  0  0  0  0  0  0  0  0  0  0
    8.6899   -7.9070    1.4052 O   0  0  0  0  0  0  0  0  0  0  0  0
    7.6280   -5.9262    0.6051 C   0  0  1  0  0  0  0  0  0  0  0  0
    8.0043   -4.4524    0.8009 C   0  0  0  0  0  0  0  0  0  0  0  0
    6.9465   -6.1081   -0.6810 N   0  0  0  0  0  0  0  0  0  0  0  0
    5.5300   -5.9550   -0.8170 C   0  0  0  0  0  0  0  0  0  0  0  0
    5.0916   -4.8868   -1.3026 O   0  0  0  0  0  0  0  0  0  0  0  0
   -0.4062    3.0580    1.6535 C   0  0  0  0  0  0  0  0  0  0  0  0
   -0.2759    2.7532    2.8713 O   0  0  0  0  0  0  0  0  0  0  0  0
   -1.7045    3.4191    1.1686 N   0  0  0  0  0  0  0  0  0  0  0  0
   -2.0829    4.8279    1.0495 C   0  0  2  0  0  0  0  0  0  0  0  0
   -2.3009    5.4331    2.4455 C   0  0  0  0  0  0  0  0  0  0  0  0
   -3.2864    4.9851    0.1406 C   0  0  0  0  0  0  0  0  0  0  0  0
   -3.1714    4.6942   -1.0778 O   0  0  0  0  0  0  0  0  0  0  0  0
   -4.5232    5.5402    0.6265 N   0  0  0  0  0  0  0  0  0  0  0  0
   -5.3233    6.5002   -0.1444 C   0  0  2  0  0  0  0  0  0  0  0  0
   -4.4455    7.6455   -0.6666 C   0  0  0  0  0  0  0  0  0  0  0  0
   -6.4119    7.0948    0.7332 C   0  0  0  0  0  0  0  0  0  0  0  0
   -6.1001    7.4707    1.8950 O   0  0  0  0  0  0  0  0  0  0  0  0
   -7.7300    7.4024    0.2517 N   0  0  0  0  0  0  0  0  0  0  0  0
   -8.3946    6.7407   -0.8811 C   0  0  2  0  0  0  0  0  0  0  0  0
   -8.1238    7.5282   -2.1655 C   0  0  0  0  0  0  0  0  0  0  0  0
   -9.8884    6.6401   -0.6514 C   0  0  0  0  0  0  0  0  0  0  0  0
  -10.4447    7.3859    0.2032 O   0  0  0  0  0  0  0  0  0  0  0  0
  -10.7238    5.7651   -1.4303 N   0  0  0  0  0  0  0  0  0  0  0  0
  -10.2292    4.5628   -2.1125 C   0  0  2  0  0  0  0  0  0  0  0  0
  -11.2215    4.0758   -3.1734 C   0  0  0  0  0  0  0  0  0  0  0  0
   -9.8505    3.4870   -1.1112 C   0  0  0  0  0  0  0  0  0  0  0  0
   -8.6553    3.0781   -1.1145 O   0  0  0  0  0  0  0  0  0  0  0  0
  -10.7524    2.9388   -0.1227 N   0  0  0  0  0  0  0  0  0  0  0  0
  -12.2183    3.0195   -0.1609 C   0  0  2  0  0  0  0  0  0  0  0  0
  -12.8040    2.8119    1.2374 C   0  0  0  0  0  0  0  0  0  0  0  0
  -12.7978    2.0027   -1.1214 C   0  0  0  0  0  0  0  0  0  0  0  0
  -13.9896    2.1413   -1.5012 O   0  0  0  0  0  0  0  0  0  0  0  0
  -12.0023    0.9549   -1.6936 N   0  0  0  0  0  0  0  0  0  0  0  0
  -11.4345   -0.1324   -0.8845 C   0  0  2  0  0  0  0  0  0  0  0  0
   -9.9854   -0.3904   -1.3044 C   0  0  0  0  0  0  0  0  0  0  0  0
  -12.2294   -1.3987   -1.0759 C   0  0  0  0  0  0  0  0  0  0  0  0
  -12.6625   -1.6883   -2.2246 O   0  0  0  0  0  0  0  0  0  0  0  0
  -12.4089   -2.3184    0.0145 N   0  0  0  0  0  0  0  0  0  0  0  0
  -13.0015   -3.6497   -0.1962 C   0  0  2  0  0  0  0  0  0  0  0  0
  -14.5211   -3.5339   -0.3399 C   0  0  0  0  0  0  0  0  0  0  0  0
  -12.6604   -4.5697    0.9614 C   0  0  0  0  0  0  0  0  0  0  0  0
  -12.9973   -4.2277    2.1271 O   0  0  0  0  0  0  0  0  0  0  0  0
  -12.0163   -5.8471    0.7779 N   0  0  0  0  0  0  0  0  0  0  0  0
  -11.2843   -6.2334   -0.4364 C   0  0  2  0  0  0  0  0  0  0  0  0
  -10.8808   -7.7129   -0.4016 C   0  0  0  0  0  0  0  0  0  0  0  0
  -10.0903   -5.3298   -0.6405 C   0  0  0  0  0  0  0  0  0  0  0  0
   -9.8025   -4.9670   -1.8110 O   0  0  0  0  0  0  0  0  0  0  0  0
   -9.3492   -4.7812    0.4645 N   0  0  0  0  0  0  0  0  0  0  0  0
   -8.6889   -5.6227    1.4677 C   0  0  2  0  0  0  0  0  0  0  0  0
   -8.4851   -4.8259    2.7551 C   0  0  0  0  0  0  0  0  0  0  0  0
   -7.4079   -6.1697    0.8750 C   0  0  0  0  0  0  0  0  0  0  0  0
   -7.4810   -6.9969   -0.0586 O   0  0  0  0  0  0  0  0  0  0  0  0
   -6.1126   -5.6537    1.2578 N   0  0  0  0  0  0  0  0  0  0  0  0
   -4.9670   -5.7580    0.3373 C   0  0  1  0  0  0  0  0  0  0  0  0
   -5.2510   -5.0189   -0.9520 C   0  0  0  0  0  0  0  0  0  0  0  0
   -4.5652   -5.3799   -2.1502 N   0  0  0  0  0  0  0  0  0  0  0  0
   -6.0625   -4.0496   -0.9695 O   0  0  0  0  0  0  0  0  0  0  0  0
   -3.6494   -5.2860    0.9838 C   0  0  0  0  0  0  0  0  0  0  0  0
   -3.6505   -3.4972    1.3880 S   0  0  0  0  0  0  0  0  0  0  0  0
   -2.7000   -2.9267   -0.0727 C   0  0  0  0  0  0  0  0  0  0  0  0
    4.5965  -10.1138   -0.2893 H   0  0  0  0  0  0  0  0  0  0  0  0
    5.4209  -10.8503    1.1332 H   0  0  0  0  0  0  0  0  0  0  0  0
    6.3035   -9.6532    0.1306 H   0  0  0  0  0  0  0  0  0  0  0  0
    4.4571   -6.7048    1.6056 H   0  0  0  0  0  0  0  0  0  0  0  0
    5.0187   -7.9523   -1.1218 H   0  0  0  0  0  0  0  0  0  0  0  0
    3.1194   -6.4280   -1.9793 H   0  0  0  0  0  0  0  0  0  0  0  0
    2.7003   -7.9261   -1.1402 H   0  0  0  0  0  0  0  0  0  0  0  0
    1.9686   -4.4359   -1.6165 H   0  0  0  0  0  0  0  0  0  0  0  0
    3.1248   -3.9901   -0.3056 H   0  0  0  0  0  0  0  0  0  0  0  0
   -0.5925   -4.4819   -0.8431 H   0  0  0  0  0  0  0  0  0  0  0  0
   -1.5504   -0.9524    1.4091 H   0  0  0  0  0  0  0  0  0  0  0  0
    2.5131   -2.2942    1.1680 H   0  0  0  0  0  0  0  0  0  0  0  0
    1.4115   -0.8157    3.1996 H   0  0  0  0  0  0  0  0  0  0  0  0
    0.0860    0.2396    2.6156 H   0  0  0  0  0  0  0  0  0  0  0  0
    0.1599    0.9998    0.1114 H   0  0  0  0  0  0  0  0  0  0  0  0
    1.6649    1.5893   -0.6507 H   0  0  0  0  0  0  0  0  0  0  0  0
    1.6621    3.3812    1.3244 H   0  0  0  0  0  0  0  0  0  0  0  0
   -0.1404    3.5371   -1.1169 H   0  0  0  0  0  0  0  0  0  0  0  0
    2.7629    6.5587   -0.5952 H   0  0  0  0  0  0  0  0  0  0  0  0
    1.0356    5.5880    1.7890 H   0  0  0  0  0  0  0  0  0  0  0  0
    2.0702    7.0455    1.7517 H   0  0  0  0  0  0  0  0  0  0  0  0
    0.6602    6.9574    0.6670 H   0  0  0  0  0  0  0  0  0  0  0  0
    3.5804    3.9623    0.3180 H   0  0  0  0  0  0  0  0  0  0  0  0
    4.2478    7.5354    0.7559 H   0  0  0  0  0  0  0  0  0  0  0  0
    3.7943    7.4361    3.2495 H   0  0  0  0  0  0  0  0  0  0  0  0
    5.5493    7.1024    3.5141 H   0  0  0  0  0  0  0  0  0  0  0  0
    5.0307    8.6705    2.7764 H   0  0  0  0  0  0  0  0  0  0  0  0
    6.6703    8.0950    0.8942 H   0  0  0  0  0  0  0  0  0  0  0  0
    9.2851    6.5323    0.6604 H   0  0  0  0  0  0  0  0  0  0  0  0
    8.3117    7.8402    2.5483 H   0  0  0  0  0  0  0  0  0  0  0  0
    9.5598    6.7184    3.1689 H   0  0  0  0  0  0  0  0  0  0  0  0
    7.8299    6.2976    3.3762 H   0  0  0  0  0  0  0  0  0  0  0  0
    8.2728    4.0024    2.0373 H   0  0  0  0  0  0  0  0  0  0  0  0
   10.9949    5.2503   -0.0918 H   0  0  0  0  0  0  0  0  0  0  0  0
   12.5251    5.6014    2.5560 H   0  0  0  0  0  0  0  0  0  0  0  0
   11.4457    6.8017    1.7547 H   0  0  0  0  0  0  0  0  0  0  0  0
   12.9861    6.3424    0.9686 H   0  0  0  0  0  0  0  0  0  0  0  0
   13.0364    3.4334    1.2560 H   0  0  0  0  0  0  0  0  0  0  0  0
   10.7948    3.6215   -1.5908 H   0  0  0  0  0  0  0  0  0  0  0  0
   12.0874    5.2704   -2.8764 H   0  0  0  0  0  0  0  0  0  0  0  0
   11.3941    4.0268   -3.9818 H   0  0  0  0  0  0  0  0  0  0  0  0
   13.1578    3.9703   -3.5475 H   0  0  0  0  0  0  0  0  0  0  0  0
   10.8605    1.6803   -3.0007 H   0  0  0  0  0  0  0  0  0  0  0  0
   12.5083   -0.8860   -0.5855 H   0  0  0  0  0  0  0  0  0  0  0  0
   11.3594    0.9248    0.6581 H   0  0  0  0  0  0  0  0  0  0  0  0
    9.9656    0.8494   -0.4927 H   0  0  0  0  0  0  0  0  0  0  0  0
   10.3557   -0.5616    0.5588 H   0  0  0  0  0  0  0  0  0  0  0  0
   10.2501   -0.6621   -2.6378 H   0  0  0  0  0  0  0  0  0  0  0  0
   12.9950   -2.8524   -1.4951 H   0  0  0  0  0  0  0  0  0  0  0  0
   10.7833   -3.9872    0.3216 H   0  0  0  0  0  0  0  0  0  0  0  0
   11.9141   -2.6282    0.6750 H   0  0  0  0  0  0  0  0  0  0  0  0
   12.5450   -4.2948    0.5621 H   0  0  0  0  0  0  0  0  0  0  0  0
   12.9611   -4.7395   -2.7845 H   0  0  0  0  0  0  0  0  0  0  0  0
    9.7009   -5.3799   -1.5668 H   0  0  0  0  0  0  0  0  0  0  0  0
    9.9293   -7.2083   -3.2288 H   0  0  0  0  0  0  0  0  0  0  0  0
   10.4455   -8.3639   -1.9281 H   0  0  0  0  0  0  0  0  0  0  0  0
    8.7735   -7.7058   -1.9427 H   0  0  0  0  0  0  0  0  0  0  0  0
   10.9441   -6.7726    0.7225 H   0  0  0  0  0  0  0  0  0  0  0  0
    6.9224   -6.1766    1.4325 H   0  0  0  0  0  0  0  0  0  0  0  0
    8.6341   -4.3168    1.7069 H   0  0  0  0  0  0  0  0  0  0  0  0
    7.0861   -3.8519    0.9476 H   0  0  0  0  0  0  0  0  0  0  0  0
    8.5313   -4.0435   -0.0821 H   0  0  0  0  0  0  0  0  0  0  0  0
    7.4868   -5.8699   -1.5420 H   0  0  0  0  0  0  0  0  0  0  0  0
   -2.4730    2.7470    1.3864 H   0  0  0  0  0  0  0  0  0  0  0  0
   -1.2555    5.3920    0.5792 H   0  0  0  0  0  0  0  0  0  0  0  0
   -1.3533    5.3991    3.0278 H   0  0  0  0  0  0  0  0  0  0  0  0
   -2.6061    6.5003    2.3557 H   0  0  0  0  0  0  0  0  0  0  0  0
   -3.0778    4.8789    3.0128 H   0  0  0  0  0  0  0  0  0  0  0  0
   -4.8586    5.2374    1.5707 H   0  0  0  0  0  0  0  0  0  0  0  0
   -5.7608    5.9740   -1.0192 H   0  0  0  0  0  0  0  0  0  0  0  0
   -3.8853    8.1258    0.1605 H   0  0  0  0  0  0  0  0  0  0  0  0
   -3.7134    7.2612   -1.4099 H   0  0  0  0  0  0  0  0  0  0  0  0
   -5.0694    8.4124   -1.1761 H   0  0  0  0  0  0  0  0  0  0  0  0
   -8.1987    8.2283    0.6890 H   0  0  0  0  0  0  0  0  0  0  0  0
   -7.9877    5.7132   -0.9842 H   0  0  0  0  0  0  0  0  0  0  0  0
   -8.4638    8.5799   -2.0477 H   0  0  0  0  0  0  0  0  0  0  0  0
   -7.0430    7.5353   -2.3958 H   0  0  0  0  0  0  0  0  0  0  0  0
   -8.6503    7.0737   -3.0326 H   0  0  0  0  0  0  0  0  0  0  0  0
  -11.7417    5.9974   -1.4856 H   0  0  0  0  0  0  0  0  0  0  0  0
   -9.3113    4.8263   -2.6820 H   0  0  0  0  0  0  0  0  0  0  0  0
  -11.2085    4.7763   -4.0352 H   0  0  0  0  0  0  0  0  0  0  0  0
  -10.9379    3.0680   -3.5455 H   0  0  0  0  0  0  0  0  0  0  0  0
  -12.2629    4.0425   -2.7987 H   0  0  0  0  0  0  0  0  0  0  0  0
  -10.3152    2.3738    0.6408 H   0  0  0  0  0  0  0  0  0  0  0  0
  -12.5145    4.0322   -0.4873 H   0  0  0  0  0  0  0  0  0  0  0  0
  -12.6409    1.7708    1.5861 H   0  0  0  0  0  0  0  0  0  0  0  0
  -12.3294    3.5115    1.9580 H   0  0  0  0  0  0  0  0  0  0  0  0
  -13.8926    3.0241    1.2248 H   0  0  0  0  0  0  0  0  0  0  0  0
  -12.0756    0.8110   -2.7272 H   0  0  0  0  0  0  0  0  0  0  0  0
  -11.4419    0.1469    0.1905 H   0  0  0  0  0  0  0  0  0  0  0  0
   -9.9271   -0.6939   -2.3725 H   0  0  0  0  0  0  0  0  0  0  0  0
   -9.5439   -1.1976   -0.6825 H   0  0  0  0  0  0  0  0  0  0  0  0
   -9.3798    0.5266   -1.1626 H   0  0  0  0  0  0  0  0  0  0  0  0
  -11.9423   -2.0931    0.9188 H   0  0  0  0  0  0  0  0  0  0  0  0
  -12.6037   -4.0569   -1.1430 H   0  0  0  0  0  0  0  0  0  0  0  0
  -14.7924   -2.8464   -1.1737 H   0  0  0  0  0  0  0  0  0  0  0  0
  -14.9854   -3.1509    0.5953 H   0  0  0  0  0  0  0  0  0  0  0  0
  -14.9517   -4.5324   -0.5728 H   0  0  0  0  0  0  0  0  0  0  0  0
  -12.0950   -6.5358    1.5592 H   0  0  0  0  0  0  0  0  0  0  0  0
  -11.9619   -6.1396   -1.3134 H   0  0  0  0  0  0  0  0  0  0  0  0
  -10.2494   -7.9603   -1.2833 H   0  0  0  0  0  0  0  0  0  0  0  0
  -11.7958   -8.3459   -0.4487 H   0  0  0  0  0  0  0  0  0  0  0  0
  -10.3312   -7.9832    0.5202 H   0  0  0  0  0  0  0  0  0  0  0  0
   -8.9284   -3.8387    0.2925 H   0  0  0  0  0  0  0  0  0  0  0  0
   -9.3448   -6.4773    1.7410 H   0  0  0  0  0  0  0  0  0  0  0  0
   -7.8695   -3.9202    2.5676 H   0  0  0  0  0  0  0  0  0  0  0  0
   -7.9914   -5.4531    3.5261 H   0  0  0  0  0  0  0  0  0  0  0  0
   -9.4764   -4.5147    3.1497 H   0  0  0  0  0  0  0  0  0  0  0  0
   -5.9070   -5.5933    2.2906 H   0  0  0  0  0  0  0  0  0  0  0  0
   -4.8407   -6.8309    0.0795 H   0  0  0  0  0  0  0  0  0  0  0  0
   -3.7470   -6.0168   -2.1286 H   0  0  0  0  0  0  0  0  0  0  0  0
   -4.8763   -4.9689   -3.0644 H   0  0  0  0  0  0  0  0  0  0  0  0
   -3.4893   -5.8480    1.9286 H   0  0  0  0  0  0  0  0  0  0  0  0
   -2.7956   -5.5441    0.3223 H   0  0  0  0  0  0  0  0  0  0  0  0
   -3.1144   -1.9385   -0.3653 H   0  0  0  0  0  0  0  0  0  0  0  0
   -2.8342   -3.5925   -0.9520 H   0  0  0  0  0  0  0  0  0  0  0  0
  1  2  1  0
  2  3  2  0
  2  4  1  0
  4  5  1  0
  5  6  1  0
  6  7  1  0
  7  8  1  0
  8  9  1  0
  9 10  2  0
 10 11  1  0
 11 12  2  0
 12 13  1  0
 13 14  2  0
 13 15  1  0
 15 16  1  0
 16 17  1  0
 17 18  1  0
 18 19  1  0
 19 20  1  0
 20 21  2  0
 20 22  1  0
 22 23  1  0
 22 24  1  0
 24 25  1  0
 25 26  2  0
 25 27  1  0
 27 28  1  0
 27 29  1  0
 29 30  1  0
 30 31  2  0
 30 32  1  0
 32 33  1  0
 32 34  1  0
 34 35  1  0
 35 36  2  0
 35 37  1  0
 37 38  1  0
 37 39  1  0
 39 40  1  0
 40 41  2  0
 40 42  1  0
 42 43  1  0
 42 44  1  0
 44 45  1  0
 45 46  2  0
 45 47  1  0
 47 48  1  0
 47 49  1  0
 49 50  1  0
 50 51  2  0
 50 52  1  0
 52 53  1  0
 52 54  1  0
 54 55  1  0
 55 56  2  0
 55 57  1  0
 57 58  1  0
 57 59  1  0
 59 60  1  0
 60 61  2  0
 60 62  1  0
 62 63  1  0
 62 64  1  0
 64 65  1  0
 65 66  2  0
 18 67  1  0
 67 68  2  0
 67 69  1  0
 69 70  1  0
 70 71  1  0
 70 72  1  0
 72 73  2  0
 72 74  1  0
 74 75  1  0
 75 76  1  0
 75 77  1  0
 77 78  2  0
 77 79  1  0
 79 80  1  0
 80 81  1  0
 80 82  1  0
 82 83  2  0
 82 84  1  0
 84 85  1  0
 85 86  1  0
 85 87  1  0
 87 88  2  0
 87 89  1  0
 89 90  1  0
 90 91  1  0
 90 92  1  0
 92 93  2  0
 92 94  1  0
 94 95  1  0
 95 96  1  0
 95 97  1  0
 97 98  2  0
 97 99  1  0
 99100  1  0
100101  1  0
100102  1  0
102103  2  0
102104  1  0
104105  1  0
105106  1  0
105107  1  0
107108  2  0
107109  1  0
109110  1  0
110111  1  0
110112  1  0
112113  2  0
112114  1  0
114115  1  0
115116  1  0
116117  1  0
116118  2  0
115119  1  0
119120  1  0
120121  1  0
 65  5  1  0
 14  9  1  0
121 11  1  0
  1122  1  0
  1123  1  0
  1124  1  0
  4125  1  0
  5126  1  6
  6127  1  0
  6128  1  0
  8129  1  0
  8130  1  0
 10131  1  0
 12132  1  0
 14133  1  0
 15134  1  0
 15135  1  0
 17136  1  0
 17137  1  0
 18138  1  1
 19139  1  0
 22140  1  6
 23141  1  0
 23142  1  0
 23143  1  0
 24144  1  0
 27145  1  6
 28146  1  0
 28147  1  0
 28148  1  0
 29149  1  0
 32150  1  6
 33151  1  0
 33152  1  0
 33153  1  0
 34154  1  0
 37155  1  6
 38156  1  0
 38157  1  0
 38158  1  0
 39159  1  0
 42160  1  1
 43161  1  0
 43162  1  0
 43163  1  0
 44164  1  0
 47165  1  1
 48166  1  0
 48167  1  0
 48168  1  0
 49169  1  0
 52170  1  1
 53171  1  0
 53172  1  0
 53173  1  0
 54174  1  0
 57175  1  6
 58176  1  0
 58177  1  0
 58178  1  0
 59179  1  0
 62180  1  1
 63181  1  0
 63182  1  0
 63183  1  0
 64184  1  0
 69185  1  0
 70186  1  6
 71187  1  0
 71188  1  0
 71189  1  0
 74190  1  0
 75191  1  6
 76192  1  0
 76193  1  0
 76194  1  0
 79195  1  0
 80196  1  6
 81197  1  0
 81198  1  0
 81199  1  0
 84200  1  0
 85201  1  6
 86202  1  0
 86203  1  0
 86204  1  0
 89205  1  0
 90206  1  6
 91207  1  0
 91208  1  0
 91209  1  0
 94210  1  0
 95211  1  1
 96212  1  0
 96213  1  0
 96214  1  0
 99215  1  0
100216  1  6
101217  1  0
101218  1  0
101219  1  0
104220  1  0
105221  1  6
106222  1  0
106223  1  0
106224  1  0
109225  1  0
110226  1  1
111227  1  0
111228  1  0
111229  1  0
114230  1  0
115231  1  6
117232  1  0
117233  1  0
119234  1  0
119235  1  0
121236  1  0
121237  1  0
M  END
