
     RDKit          3D

227229  0  0  0  0  0  0  0  0999 V2000
   -4.1178   -9.6519    0.3228 C   0  0  0  0  0  0  0  0  0  0  0  0
   -3.7718   -9.3381   -1.0980 C   0  0  0  0  0  0  0  0  0  0  0  0
   -3.5313  -10.2875   -1.8935 O   0  0  0  0  0  0  0  0  0  0  0  0
   -3.7064   -7.9863   -1.5868 N   0  0  0  0  0  0  0  0  0  0  0  0
   -3.8581   -6.7926   -0.7363 C   0  0  1  0  0  0  0  0  0  0  0  0
   -3.3584   -5.5340   -1.4853 C   0  0  0  0  0  0  0  0  0  0  0  0
   -1.5277   -5.5482   -1.6290 S   0  0  0  0  0  0  0  0  0  0  0  0
   -1.1778   -5.0558    0.1075 C   0  0  0  0  0  0  0  0  0  0  0  0
   -0.2724   -3.8491    0.1715 C   0  0  0  0  0  0  0  0  0  0  0  0
    0.7932   -3.8188    1.0847 C   0  0  0  0  0  0  0  0  0  0  0  0
    1.5690   -2.6585    1.2422 C   0  0  0  0  0  0  0  0  0  0  0  0
    1.2786   -1.5302    0.4615 C   0  0  0  0  0  0  0  0  0  0  0  0
    0.2171   -1.5458   -0.4538 C   0  0  0  0  0  0  0  0  0  0  0  0
   -0.5744   -2.6980   -0.5754 C   0  0  0  0  0  0  0  0  0  0  0  0
   -0.1408   -0.2959   -1.1984 C   0  0  0  0  0  0  0  0  0  0  0  0
   -1.2252    0.7166   -0.1457 S   0  0  0  0  0  0  0  0  0  0  0  0
   -1.0091    2.2984   -1.0445 C   0  0  0  0  0  0  0  0  0  0  0  0
    0.0429    3.2416   -0.4004 C   0  0  1  0  0  0  0  0  0  0  0  0
    0.0454    3.1066    1.0640 N   0  0  0  0  0  0  0  0  0  0  0  0
   -0.6936    3.9314    1.9835 C   0  0  0  0  0  0  0  0  0  0  0  0
   -0.3087    3.9816    3.1800 O   0  0  0  0  0  0  0  0  0  0  0  0
   -1.9227    4.7190    1.5594 C   0  0  1  0  0  0  0  0  0  0  0  0
   -2.7621    5.1534    2.7753 C   0  0  0  0  0  0  0  0  0  0  0  0
   -1.5229    5.8999    0.7905 N   0  0  0  0  0  0  0  0  0  0  0  0
   -2.2642    6.3973   -0.3375 C   0  0  0  0  0  0  0  0  0  0  0  0
   -1.6333    6.9720   -1.2726 O   0  0  0  0  0  0  0  0  0  0  0  0
   -3.7820    6.4373   -0.3345 C   0  0  1  0  0  0  0  0  0  0  0  0
   -4.2201    7.7851    0.2524 C   0  0  0  0  0  0  0  0  0  0  0  0
   -4.3199    6.2592   -1.6930 N   0  0  0  0  0  0  0  0  0  0  0  0
   -5.7096    6.0564   -2.0371 C   0  0  0  0  0  0  0  0  0  0  0  0
   -6.0174    5.9598   -3.2566 O   0  0  0  0  0  0  0  0  0  0  0  0
   -6.8228    6.0015   -1.0088 C   0  0  1  0  0  0  0  0  0  0  0  0
   -7.6293    7.3048   -1.0402 C   0  0  0  0  0  0  0  0  0  0  0  0
   -7.7187    4.8746   -1.3023 N   0  0  0  0  0  0  0  0  0  0  0  0
   -7.8321    3.7581   -0.4087 C   0  0  0  0  0  0  0  0  0  0  0  0
   -7.0160    2.8040   -0.5084 O   0  0  0  0  0  0  0  0  0  0  0  0
   -8.8651    3.7426    0.6886 C   0  0  1  0  0  0  0  0  0  0  0  0
   -8.3707    4.5704    1.8821 C   0  0  0  0  0  0  0  0  0  0  0  0
  -10.1573    4.2407    0.2100 N   0  0  0  0  0  0  0  0  0  0  0  0
  -11.3686    3.9757    0.9204 C   0  0  0  0  0  0  0  0  0  0  0  0
  -11.5372    4.4480    2.0801 O   0  0  0  0  0  0  0  0  0  0  0  0
  -12.4783    3.1933    0.2764 C   0  0  1  0  0  0  0  0  0  0  0  0
  -13.0939    3.9748   -0.8809 C   0  0  0  0  0  0  0  0  0  0  0  0
  -11.9767    1.8942   -0.1929 N   0  0  0  0  0  0  0  0  0  0  0  0
  -12.2421    0.6903    0.5416 C   0  0  0  0  0  0  0  0  0  0  0  0
  -12.2294    0.7109    1.8013 O   0  0  0  0  0  0  0  0  0  0  0  0
  -12.5771   -0.5893   -0.1793 C   0  0  1  0  0  0  0  0  0  0  0  0
  -13.7152   -0.3546   -1.1780 C   0  0  0  0  0  0  0  0  0  0  0  0
  -11.4005   -1.1265   -0.8708 N   0  0  0  0  0  0  0  0  0  0  0  0
  -11.3766   -2.4510   -1.4243 C   0  0  0  0  0  0  0  0  0  0  0  0
  -10.7606   -2.6465   -2.5069 O   0  0  0  0  0  0  0  0  0  0  0  0
  -12.0820   -3.6012   -0.7357 C   0  0  1  0  0  0  0  0  0  0  0  0
  -12.0348   -4.9237   -1.5215 C   0  0  0  0  0  0  0  0  0  0  0  0
  -11.5999   -3.7872    0.6401 N   0  0  0  0  0  0  0  0  0  0  0  0
  -10.2771   -4.1895    1.0623 C   0  0  0  0  0  0  0  0  0  0  0  0
  -10.1097   -4.4928    2.2773 O   0  0  0  0  0  0  0  0  0  0  0  0
   -9.0807   -4.2237    0.1386 C   0  0  1  0  0  0  0  0  0  0  0  0
   -8.0441   -3.1612    0.5344 C   0  0  0  0  0  0  0  0  0  0  0  0
   -8.5050   -5.5721    0.0775 N   0  0  0  0  0  0  0  0  0  0  0  0
   -7.9580   -6.2739    1.2058 C   0  0  0  0  0  0  0  0  0  0  0  0
   -8.6070   -7.2436    1.6901 O   0  0  0  0  0  0  0  0  0  0  0  0
   -6.6114   -5.8985    1.7829 C   0  0  1  0  0  0  0  0  0  0  0  0
   -6.0771   -6.9465    2.7647 C   0  0  0  0  0  0  0  0  0  0  0  0
   -5.6130   -5.6595    0.7332 N   0  0  0  0  0  0  0  0  0  0  0  0
   -5.2912   -6.6195   -0.2904 C   0  0  0  0  0  0  0  0  0  0  0  0
   -6.2010   -7.3269   -0.8019 O   0  0  0  0  0  0  0  0  0  0  0  0
    1.4511    3.0670   -0.9371 C   0  0  0  0  0  0  0  0  0  0  0  0
    1.6490    2.5032   -2.0478 O   0  0  0  0  0  0  0  0  0  0  0  0
    2.5789    3.5745   -0.2046 N   0  0  0  0  0  0  0  0  0  0  0  0
    3.2573    4.8454   -0.5057 C   0  0  2  0  0  0  0  0  0  0  0  0
    2.2738    6.0151   -0.4134 C   0  0  0  0  0  0  0  0  0  0  0  0
    3.9381    4.8138   -1.8605 C   0  0  0  0  0  0  0  0  0  0  0  0
    3.2300    4.6418   -2.8875 O   0  0  0  0  0  0  0  0  0  0  0  0
    5.3612    4.9713   -2.0345 N   0  0  0  0  0  0  0  0  0  0  0  0
    6.2698    5.6305   -1.0735 C   0  0  2  0  0  0  0  0  0  0  0  0
    5.8218    7.0801   -0.8010 C   0  0  0  0  0  0  0  0  0  0  0  0
    7.7010    5.6690   -1.5867 C   0  0  0  0  0  0  0  0  0  0  0  0
    7.9486    5.4389   -2.8005 O   0  0  0  0  0  0  0  0  0  0  0  0
    8.7811    6.0971   -0.7416 N   0  0  0  0  0  0  0  0  0  0  0  0
    8.8499    5.8396    0.7034 C   0  0  2  0  0  0  0  0  0  0  0  0
    9.8298    6.8014    1.3876 C   0  0  0  0  0  0  0  0  0  0  0  0
    9.2226    4.4039    0.9829 C   0  0  0  0  0  0  0  0  0  0  0  0
    8.3743    3.6502    1.5355 O   0  0  0  0  0  0  0  0  0  0  0  0
   10.5453    3.8935    0.7408 N   0  0  0  0  0  0  0  0  0  0  0  0
   11.2880    4.1148   -0.5059 C   0  0  2  0  0  0  0  0  0  0  0  0
   10.7128    3.2896   -1.6660 C   0  0  0  0  0  0  0  0  0  0  0  0
   12.7771    3.8905   -0.3272 C   0  0  0  0  0  0  0  0  0  0  0  0
   13.5367    4.8943   -0.4172 O   0  0  0  0  0  0  0  0  0  0  0  0
   13.3869    2.6030   -0.1055 N   0  0  0  0  0  0  0  0  0  0  0  0
   12.7291    1.4093    0.4490 C   0  0  2  0  0  0  0  0  0  0  0  0
   13.1343    1.2635    1.9198 C   0  0  0  0  0  0  0  0  0  0  0  0
   13.1381    0.1775   -0.3336 C   0  0  0  0  0  0  0  0  0  0  0  0
   13.9954    0.2869   -1.2544 O   0  0  0  0  0  0  0  0  0  0  0  0
   12.6135   -1.1289   -0.0416 N   0  0  0  0  0  0  0  0  0  0  0  0
   11.2988   -1.3951    0.5507 C   0  0  2  0  0  0  0  0  0  0  0  0
   11.4471   -2.4021    1.6948 C   0  0  0  0  0  0  0  0  0  0  0  0
   10.3623   -1.9353   -0.4942 C   0  0  0  0  0  0  0  0  0  0  0  0
    9.1760   -1.5209   -0.5552 O   0  0  0  0  0  0  0  0  0  0  0  0
   10.7996   -2.9565   -1.3956 N   0  0  0  0  0  0  0  0  0  0  0  0
   10.4624   -4.3608   -1.1654 C   0  0  2  0  0  0  0  0  0  0  0  0
   11.6258   -5.2487   -1.6044 C   0  0  0  0  0  0  0  0  0  0  0  0
    9.2066   -4.7300   -1.9196 C   0  0  0  0  0  0  0  0  0  0  0  0
    9.0386   -4.2634   -3.0814 O   0  0  0  0  0  0  0  0  0  0  0  0
    8.2283   -5.6441   -1.3971 N   0  0  0  0  0  0  0  0  0  0  0  0
    8.3466   -6.3380   -0.1091 C   0  0  2  0  0  0  0  0  0  0  0  0
    7.6056   -7.6813   -0.1454 C   0  0  0  0  0  0  0  0  0  0  0  0
    7.8387   -5.4754    1.0194 C   0  0  0  0  0  0  0  0  0  0  0  0
    8.6539   -5.0668    1.8911 O   0  0  0  0  0  0  0  0  0  0  0  0
    6.4369   -5.2330    1.2087 N   0  0  0  0  0  0  0  0  0  0  0  0
    5.5813   -4.5789    0.2127 C   0  0  1  0  0  0  0  0  0  0  0  0
    4.6663   -5.5841   -0.4396 C   0  0  0  0  0  0  0  0  0  0  0  0
    4.5688   -5.6648   -1.8619 N   0  0  0  0  0  0  0  0  0  0  0  0
    3.9858   -6.3707    0.2712 O   0  0  0  0  0  0  0  0  0  0  0  0
    4.7601   -3.4375    0.8486 C   0  0  0  0  0  0  0  0  0  0  0  0
    3.7504   -4.0115    2.2693 S   0  0  0  0  0  0  0  0  0  0  0  0
    2.6191   -2.5802    2.3194 C   0  0  0  0  0  0  0  0  0  0  0  0
   -3.9757  -10.7368    0.5255 H   0  0  0  0  0  0  0  0  0  0  0  0
   -5.1854   -9.4132    0.5100 H   0  0  0  0  0  0  0  0  0  0  0  0
   -3.4681   -9.0875    1.0204 H   0  0  0  0  0  0  0  0  0  0  0  0
   -3.4718   -7.8678   -2.5973 H   0  0  0  0  0  0  0  0  0  0  0  0
   -3.2386   -6.9195    0.1755 H   0  0  0  0  0  0  0  0  0  0  0  0
   -3.6681   -4.6031   -0.9690 H   0  0  0  0  0  0  0  0  0  0  0  0
   -3.8055   -5.4927   -2.5015 H   0  0  0  0  0  0  0  0  0  0  0  0
   -2.1011   -4.8299    0.6777 H   0  0  0  0  0  0  0  0  0  0  0  0
   -0.7040   -5.9314    0.6049 H   0  0  0  0  0  0  0  0  0  0  0  0
    0.9778   -4.6802    1.7215 H   0  0  0  0  0  0  0  0  0  0  0  0
    1.8469   -0.6190    0.6053 H   0  0  0  0  0  0  0  0  0  0  0  0
   -1.4264   -2.6910   -1.2460 H   0  0  0  0  0  0  0  0  0  0  0  0
    0.7812    0.2568   -1.4549 H   0  0  0  0  0  0  0  0  0  0  0  0
   -0.6729   -0.5334   -2.1439 H   0  0  0  0  0  0  0  0  0  0  0  0
   -1.9944    2.8089   -1.0138 H   0  0  0  0  0  0  0  0  0  0  0  0
   -0.8110    2.1230   -2.1199 H   0  0  0  0  0  0  0  0  0  0  0  0
   -0.2474    4.2743   -0.6715 H   0  0  0  0  0  0  0  0  0  0  0  0
    0.6580    2.3734    1.4873 H   0  0  0  0  0  0  0  0  0  0  0  0
   -2.5512    4.0630    0.9227 H   0  0  0  0  0  0  0  0  0  0  0  0
   -3.5786    5.8368    2.4784 H   0  0  0  0  0  0  0  0  0  0  0  0
   -3.2225    4.2600    3.2438 H   0  0  0  0  0  0  0  0  0  0  0  0
   -2.1353    5.6802    3.5247 H   0  0  0  0  0  0  0  0  0  0  0  0
   -0.5932    6.3338    0.9840 H   0  0  0  0  0  0  0  0  0  0  0  0
   -4.1622    5.6125    0.2943 H   0  0  0  0  0  0  0  0  0  0  0  0
   -4.1091    8.5952   -0.5056 H   0  0  0  0  0  0  0  0  0  0  0  0
   -3.5988    8.0450    1.1416 H   0  0  0  0  0  0  0  0  0  0  0  0
   -5.2701    7.7526    0.6028 H   0  0  0  0  0  0  0  0  0  0  0  0
   -3.6524    6.2156   -2.4938 H   0  0  0  0  0  0  0  0  0  0  0  0
   -6.4042    5.8684    0.0097 H   0  0  0  0  0  0  0  0  0  0  0  0
   -6.9704    8.1808   -0.8618 H   0  0  0  0  0  0  0  0  0  0  0  0
   -8.1168    7.4376   -2.0327 H   0  0  0  0  0  0  0  0  0  0  0  0
   -8.4242    7.2824   -0.2583 H   0  0  0  0  0  0  0  0  0  0  0  0
   -8.3311    4.8969   -2.1464 H   0  0  0  0  0  0  0  0  0  0  0  0
   -8.9973    2.6868    1.0273 H   0  0  0  0  0  0  0  0  0  0  0  0
   -9.0393    4.4249    2.7572 H   0  0  0  0  0  0  0  0  0  0  0  0
   -7.3510    4.2430    2.1756 H   0  0  0  0  0  0  0  0  0  0  0  0
   -8.3393    5.6518    1.6306 H   0  0  0  0  0  0  0  0  0  0  0  0
  -10.1834    5.0458   -0.4636 H   0  0  0  0  0  0  0  0  0  0  0  0
  -13.2869    3.0320    1.0293 H   0  0  0  0  0  0  0  0  0  0  0  0
  -13.9118    3.3827   -1.3445 H   0  0  0  0  0  0  0  0  0  0  0  0
  -12.3281    4.1957   -1.6573 H   0  0  0  0  0  0  0  0  0  0  0  0
  -13.5211    4.9334   -0.5135 H   0  0  0  0  0  0  0  0  0  0  0  0
  -11.6013    1.8171   -1.1687 H   0  0  0  0  0  0  0  0  0  0  0  0
  -12.9261   -1.3223    0.5796 H   0  0  0  0  0  0  0  0  0  0  0  0
  -14.5874    0.1106   -0.6670 H   0  0  0  0  0  0  0  0  0  0  0  0
  -14.0517   -1.3179   -1.6174 H   0  0  0  0  0  0  0  0  0  0  0  0
  -13.3825    0.3117   -2.0038 H   0  0  0  0  0  0  0  0  0  0  0  0
  -10.6602   -0.4621   -1.1909 H   0  0  0  0  0  0  0  0  0  0  0  0
  -13.1608   -3.3348   -0.6793 H   0  0  0  0  0  0  0  0  0  0  0  0
  -12.5545   -4.7965   -2.4976 H   0  0  0  0  0  0  0  0  0  0  0  0
  -10.9987   -5.2609   -1.7139 H   0  0  0  0  0  0  0  0  0  0  0  0
  -12.5604   -5.7198   -0.9515 H   0  0  0  0  0  0  0  0  0  0  0  0
  -12.3134   -3.6773    1.3967 H   0  0  0  0  0  0  0  0  0  0  0  0
   -9.3811   -3.9674   -0.8881 H   0  0  0  0  0  0  0  0  0  0  0  0
   -8.4423   -2.1524    0.2941 H   0  0  0  0  0  0  0  0  0  0  0  0
   -7.1047   -3.3071   -0.0445 H   0  0  0  0  0  0  0  0  0  0  0  0
   -7.8230   -3.1840    1.6207 H   0  0  0  0  0  0  0  0  0  0  0  0
   -8.8027   -6.1692   -0.7265 H   0  0  0  0  0  0  0  0  0  0  0  0
   -6.7422   -4.9697    2.3620 H   0  0  0  0  0  0  0  0  0  0  0  0
   -6.7899   -7.0872    3.6056 H   0  0  0  0  0  0  0  0  0  0  0  0
   -5.1093   -6.6035    3.1886 H   0  0  0  0  0  0  0  0  0  0  0  0
   -5.9218   -7.9204    2.2591 H   0  0  0  0  0  0  0  0  0  0  0  0
   -4.9063   -4.9154    0.9390 H   0  0  0  0  0  0  0  0  0  0  0  0
    2.8891    3.0423    0.6406 H   0  0  0  0  0  0  0  0  0  0  0  0
    4.0226    5.0025    0.2817 H   0  0  0  0  0  0  0  0  0  0  0  0
    1.8825    6.0958    0.6202 H   0  0  0  0  0  0  0  0  0  0  0  0
    1.4223    5.8785   -1.1154 H   0  0  0  0  0  0  0  0  0  0  0  0
    2.7637    6.9740   -0.6773 H   0  0  0  0  0  0  0  0  0  0  0  0
    5.7256    4.6823   -2.9716 H   0  0  0  0  0  0  0  0  0  0  0  0
    6.2635    5.0459   -0.1320 H   0  0  0  0  0  0  0  0  0  0  0  0
    6.6414    7.6809   -0.3492 H   0  0  0  0  0  0  0  0  0  0  0  0
    5.5051    7.5726   -1.7508 H   0  0  0  0  0  0  0  0  0  0  0  0
    4.9843    7.0948   -0.0735 H   0  0  0  0  0  0  0  0  0  0  0  0
    9.5433    6.6477   -1.1924 H   0  0  0  0  0  0  0  0  0  0  0  0
    7.8531    6.0466    1.1568 H   0  0  0  0  0  0  0  0  0  0  0  0
    9.5094    7.8489    1.2115 H   0  0  0  0  0  0  0  0  0  0  0  0
   10.8647    6.6693    1.0075 H   0  0  0  0  0  0  0  0  0  0  0  0
    9.8322    6.6159    2.4837 H   0  0  0  0  0  0  0  0  0  0  0  0
   10.9725    3.3346    1.5106 H   0  0  0  0  0  0  0  0  0  0  0  0
   11.1738    5.1765   -0.7869 H   0  0  0  0  0  0  0  0  0  0  0  0
   10.9559    2.2089   -1.5865 H   0  0  0  0  0  0  0  0  0  0  0  0
   11.1285    3.6621   -2.6268 H   0  0  0  0  0  0  0  0  0  0  0  0
    9.6072    3.3964   -1.7022 H   0  0  0  0  0  0  0  0  0  0  0  0
   14.4356    2.5851   -0.1357 H   0  0  0  0  0  0  0  0  0  0  0  0
   11.6314    1.5099    0.3926 H   0  0  0  0  0  0  0  0  0  0  0  0
   12.8840    2.1902    2.4759 H   0  0  0  0  0  0  0  0  0  0  0  0
   12.5973    0.4208    2.4004 H   0  0  0  0  0  0  0  0  0  0  0  0
   14.2279    1.0947    2.0060 H   0  0  0  0  0  0  0  0  0  0  0  0
   13.1370   -1.9416   -0.4346 H   0  0  0  0  0  0  0  0  0  0  0  0
   10.8557   -0.4754    0.9789 H   0  0  0  0  0  0  0  0  0  0  0  0
   10.4527   -2.6319    2.1325 H   0  0  0  0  0  0  0  0  0  0  0  0
   11.9172   -3.3447    1.3399 H   0  0  0  0  0  0  0  0  0  0  0  0
   12.0829   -1.9721    2.4963 H   0  0  0  0  0  0  0  0  0  0  0  0
   11.1825   -2.6613   -2.3216 H   0  0  0  0  0  0  0  0  0  0  0  0
   10.3127   -4.5137   -0.0803 H   0  0  0  0  0  0  0  0  0  0  0  0
   11.8007   -5.1615   -2.6974 H   0  0  0  0  0  0  0  0  0  0  0  0
   12.5519   -4.9463   -1.0701 H   0  0  0  0  0  0  0  0  0  0  0  0
   11.4149   -6.3117   -1.3626 H   0  0  0  0  0  0  0  0  0  0  0  0
    7.4127   -5.8691   -2.0123 H   0  0  0  0  0  0  0  0  0  0  0  0
    9.4117   -6.5912    0.0769 H   0  0  0  0  0  0  0  0  0  0  0  0
    7.6491   -8.1714    0.8507 H   0  0  0  0  0  0  0  0  0  0  0  0
    6.5436   -7.5495   -0.4280 H   0  0  0  0  0  0  0  0  0  0  0  0
    8.0835   -8.3548   -0.8888 H   0  0  0  0  0  0  0  0  0  0  0  0
    6.0466   -5.4669    2.1477 H   0  0  0  0  0  0  0  0  0  0  0  0
    6.2193   -4.1041   -0.5654 H   0  0  0  0  0  0  0  0  0  0  0  0
    3.9134   -6.3498   -2.3026 H   0  0  0  0  0  0  0  0  0  0  0  0
    5.1195   -5.0314   -2.4811 H   0  0  0  0  0  0  0  0  0  0  0  0
    5.4447   -2.6441    1.2127 H   0  0  0  0  0  0  0  0  0  0  0  0
    4.1050   -2.9908    0.0718 H   0  0  0  0  0  0  0  0  0  0  0  0
    2.1089   -2.5891    3.3034 H   0  0  0  0  0  0  0  0  0  0  0  0
    3.2095   -1.6439    2.2528 H   0  0  0  0  0  0  0  0  0  0  0  0
  1  2  1  0
  2  3  2  0
  2  4  1  0
  4  5  1  0
  5  6  1  0
  6  7  1  0
  7  8  1  0
  8  9  1  0
  9 10  1  0
 10 11  2  0
 11 12  1  0
 12 13  2  0
 13 14  1  0
 13 15  1  0
 15 16  1  0
 16 17  1  0
 17 18  1  0
 18 19  1  0
 19 20  1  0
 20 21  2  0
 20 22  1  0
 22 23  1  0
 22 24  1  0
 24 25  1  0
 25 26  2  0
 25 27  1  0
 27 28  1  0
 27 29  1  0
 29 30  1  0
 30 31  2  0
 30 32  1  0
 32 33  1  0
 32 34  1  0
 34 35  1  0
 35 36  2  0
 35 37  1  0
 37 38  1  0
 37 39  1  0
 39 40  1  0
 40 41  2  0
 40 42  1  0
 42 43  1  0
 42 44  1  0
 44 45  1  0
 45 46  2  0
 45 47  1  0
 47 48  1  0
 47 49  1  0
 49 50  1  0
 50 51  2  0
 50 52  1  0
 52 53  1  0
 52 54  1  0
 54 55  1  0
 55 56  2  0
 55 57  1  0
 57 58  1  0
 57 59  1  0
 59 60  1  0
 60 61  2  0
 60 62  1  0
 62 63  1  0
 62 64  1  0
 64 65  1  0
 65 66  2  0
 18 67  1  0
 67 68  2  0
 67 69  1  0
 69 70  1  0
 70 71  1  0
 70 72  1  0
 72 73  2  0
 72 74  1  0
 74 75  1  0
 75 76  1  0
 75 77  1  0
 77 78  2  0
 77 79  1  0
 79 80  1  0
 80 81  1  0
 80 82  1  0
 82 83  2  0
 82 84  1  0
 84 85  1  0
 85 86  1  0
 85 87  1  0
 87 88  2  0
 87 89  1  0
 89 90  1  0
 90 91  1  0
 90 92  1  0
 92 93  2  0
 92 94  1  0
 94 95  1  0
 95 96  1  0
 95 97  1  0
 97 98  2  0
 97 99  1  0
 99100  1  0
100101  1  0
100102  1  0
102103  2  0
102104  1  0
104105  1  0
105106  1  0
105107  1  0
107108  2  0
107109  1  0
109110  1  0
110111  1  0
111112  1  0
111113  2  0
110114  1  0
114115  1  0
115116  1  0
 65  5  1  0
 14  9  2  0
116 11  1  0
  1117  1  0
  1118  1  0
  1119  1  0
  4120  1  0
  5121  1  1
  6122  1  0
  6123  1  0
  8124  1  0
  8125  1  0
 10126  1  0
 12127  1  0
 14128  1  0
 15129  1  0
 15130  1  0
 17131  1  0
 17132  1  0
 18133  1  1
 19134  1  0
 22135  1  6
 23136  1  0
 23137  1  0
 23138  1  0
 24139  1  0
 27140  1  1
 28141  1  0
 28142  1  0
 28143  1  0
 29144  1  0
 32145  1  1
 33146  1  0
 33147  1  0
 33148  1  0
 34149  1  0
 37150  1  1
 38151  1  0
 38152  1  0
 38153  1  0
 39154  1  0
 42155  1  1
 43156  1  0
 43157  1  0
 43158  1  0
 44159  1  0
 47160  1  1
 48161  1  0
 48162  1  0
 48163  1  0
 49164  1  0
 52165  1  1
 53166  1  0
 53167  1  0
 53168  1  0
 54169  1  0
 57170  1  6
 58171  1  0
 58172  1  0
 58173  1  0
 59174  1  0
 62175  1  1
 63176  1  0
 63177  1  0
 63178  1  0
 64179  1  0
 69180  1  0
 70181  1  1
 71182  1  0
 71183  1  0
 71184  1  0
 74185  1  0
 75186  1  1
 76187  1  0
 76188  1  0
 76189  1  0
 79190  1  0
 80191  1  1
 81192  1  0
 81193  1  0
 81194  1  0
 84195  1  0
 85196  1  6
 86197  1  0
 86198  1  0
 86199  1  0
 89200  1  0
 90201  1  1
 91202  1  0
 91203  1  0
 91204  1  0
 94205  1  0
 95206  1  1
 96207  1  0
 96208  1  0
 96209  1  0
 99210  1  0
100211  1  1
101212  1  0
101213  1  0
101214  1  0
104215  1  0
105216  1  1
106217  1  0
106218  1  0
106219  1  0
109220  1  0
110221  1  6
112222  1  0
112223  1  0
114224  1  0
114225  1  0
116226  1  0
116227  1  0
M  END
