
     RDKit          3D

227229  0  0  0  0  0  0  0  0999 V2000
   -4.0301   -8.0704   -1.5840 C   0  0  0  0  0  0  0  0  0  0  0  0
   -2.9684   -8.2067   -0.5365 C   0  0  0  0  0  0  0  0  0  0  0  0
   -1.9792   -8.9477   -0.7688 O   0  0  0  0  0  0  0  0  0  0  0  0
   -3.0246   -7.4819    0.7056 N   0  0  0  0  0  0  0  0  0  0  0  0
   -4.0647   -6.5078    1.0708 C   0  0  2  0  0  0  0  0  0  0  0  0
   -3.4040   -5.1838    1.4810 C   0  0  0  0  0  0  0  0  0  0  0  0
   -2.7930   -4.3291   -0.0166 S   0  0  0  0  0  0  0  0  0  0  0  0
   -1.7698   -3.0929    0.8637 C   0  0  0  0  0  0  0  0  0  0  0  0
   -0.8444   -2.4629   -0.1341 C   0  0  0  0  0  0  0  0  0  0  0  0
    0.2863   -3.1705   -0.5704 C   0  0  0  0  0  0  0  0  0  0  0  0
    1.0594   -2.6932   -1.6399 C   0  0  0  0  0  0  0  0  0  0  0  0
    0.7148   -1.4805   -2.2514 C   0  0  0  0  0  0  0  0  0  0  0  0
   -0.4007   -0.7501   -1.8081 C   0  0  0  0  0  0  0  0  0  0  0  0
   -1.1973   -1.2686   -0.7743 C   0  0  0  0  0  0  0  0  0  0  0  0
   -0.8402    0.4653   -2.5874 C   0  0  0  0  0  0  0  0  0  0  0  0
   -1.5268    1.7864   -1.5273 S   0  0  0  0  0  0  0  0  0  0  0  0
    0.0713    2.2869   -0.8005 C   0  0  0  0  0  0  0  0  0  0  0  0
   -0.0862    3.5414    0.0943 C   0  0  1  0  0  0  0  0  0  0  0  0
   -0.7181    3.1926    1.3726 N   0  0  0  0  0  0  0  0  0  0  0  0
   -2.1410    3.0619    1.5046 C   0  0  0  0  0  0  0  0  0  0  0  0
   -2.6431    1.9061    1.4667 O   0  0  0  0  0  0  0  0  0  0  0  0
   -3.0398    4.2334    1.8540 C   0  0  1  0  0  0  0  0  0  0  0  0
   -2.3507    5.5971    1.8149 C   0  0  0  0  0  0  0  0  0  0  0  0
   -4.2581    4.2257    1.0320 N   0  0  0  0  0  0  0  0  0  0  0  0
   -4.2459    4.3238   -0.3964 C   0  0  0  0  0  0  0  0  0  0  0  0
   -4.3927    3.2769   -1.0827 O   0  0  0  0  0  0  0  0  0  0  0  0
   -4.2254    5.6647   -1.0835 C   0  0  1  0  0  0  0  0  0  0  0  0
   -3.0019    5.7721   -2.0133 C   0  0  0  0  0  0  0  0  0  0  0  0
   -5.4532    5.8307   -1.8723 N   0  0  0  0  0  0  0  0  0  0  0  0
   -6.7158    6.2888   -1.3566 C   0  0  0  0  0  0  0  0  0  0  0  0
   -7.6154    6.6059   -2.1823 O   0  0  0  0  0  0  0  0  0  0  0  0
   -7.0566    6.3023    0.1154 C   0  0  1  0  0  0  0  0  0  0  0  0
   -7.6597    7.6695    0.4912 C   0  0  0  0  0  0  0  0  0  0  0  0
   -8.0187    5.2256    0.4045 N   0  0  0  0  0  0  0  0  0  0  0  0
   -8.6502    5.0636    1.6831 C   0  0  0  0  0  0  0  0  0  0  0  0
   -8.0331    5.3885    2.7292 O   0  0  0  0  0  0  0  0  0  0  0  0
  -10.0473    4.4903    1.7737 C   0  0  1  0  0  0  0  0  0  0  0  0
  -10.8515    5.1768    2.8907 C   0  0  0  0  0  0  0  0  0  0  0  0
  -10.7523    4.6903    0.4965 N   0  0  0  0  0  0  0  0  0  0  0  0
  -11.2868    3.6621   -0.3587 C   0  0  0  0  0  0  0  0  0  0  0  0
  -11.7540    4.0056   -1.4783 O   0  0  0  0  0  0  0  0  0  0  0  0
  -11.3739    2.2066    0.0510 C   0  0  1  0  0  0  0  0  0  0  0  0
  -12.5801    1.9929    0.9715 C   0  0  0  0  0  0  0  0  0  0  0  0
  -11.5062    1.3514   -1.1357 N   0  0  0  0  0  0  0  0  0  0  0  0
  -10.3750    0.8887   -1.8881 C   0  0  0  0  0  0  0  0  0  0  0  0
  -10.3567    1.0661   -3.1367 O   0  0  0  0  0  0  0  0  0  0  0  0
   -9.2264    0.1375   -1.2482 C   0  0  1  0  0  0  0  0  0  0  0  0
   -8.0887    1.0866   -0.8434 C   0  0  0  0  0  0  0  0  0  0  0  0
   -9.6881   -0.6666   -0.1099 N   0  0  0  0  0  0  0  0  0  0  0  0
  -10.7401   -1.6420   -0.2180 C   0  0  0  0  0  0  0  0  0  0  0  0
  -11.8199   -1.4293    0.4020 O   0  0  0  0  0  0  0  0  0  0  0  0
  -10.5399   -2.9889   -0.8777 C   0  0  1  0  0  0  0  0  0  0  0  0
  -10.0902   -2.8744   -2.3366 C   0  0  0  0  0  0  0  0  0  0  0  0
   -9.5824   -3.7872   -0.1102 N   0  0  0  0  0  0  0  0  0  0  0  0
   -9.3066   -5.1556   -0.4318 C   0  0  0  0  0  0  0  0  0  0  0  0
  -10.2403   -5.9095   -0.8093 O   0  0  0  0  0  0  0  0  0  0  0  0
   -7.9010   -5.6933   -0.3879 C   0  0  1  0  0  0  0  0  0  0  0  0
   -7.4220   -5.9794   -1.8167 C   0  0  0  0  0  0  0  0  0  0  0  0
   -6.9890   -4.7364    0.2535 N   0  0  0  0  0  0  0  0  0  0  0  0
   -6.8559   -4.5773    1.6778 C   0  0  0  0  0  0  0  0  0  0  0  0
   -6.6068   -3.4279    2.1321 O   0  0  0  0  0  0  0  0  0  0  0  0
   -6.9881   -5.7215    2.6616 C   0  0  1  0  0  0  0  0  0  0  0  0
   -8.4474   -5.9920    3.0320 C   0  0  0  0  0  0  0  0  0  0  0  0
   -6.3270   -6.9360    2.1585 N   0  0  0  0  0  0  0  0  0  0  0  0
   -4.9071   -7.0534    2.1928 C   0  0  0  0  0  0  0  0  0  0  0  0
   -4.3598   -7.6621    3.1533 O   0  0  0  0  0  0  0  0  0  0  0  0
    1.2416    4.2251    0.3392 C   0  0  0  0  0  0  0  0  0  0  0  0
    2.2812    3.8107   -0.2366 O   0  0  0  0  0  0  0  0  0  0  0  0
    1.3040    5.4071    1.1591 N   0  0  0  0  0  0  0  0  0  0  0  0
    1.8830    6.6809    0.7016 C   0  0  2  0  0  0  0  0  0  0  0  0
    1.5662    6.9509   -0.7741 C   0  0  0  0  0  0  0  0  0  0  0  0
    3.3702    6.7697    0.9637 C   0  0  0  0  0  0  0  0  0  0  0  0
    3.8426    7.8430    1.4293 O   0  0  0  0  0  0  0  0  0  0  0  0
    4.2563    5.7106    0.6000 N   0  0  0  0  0  0  0  0  0  0  0  0
    5.4474    5.9484   -0.2239 C   0  0  2  0  0  0  0  0  0  0  0  0
    5.0443    6.5272   -1.5853 C   0  0  0  0  0  0  0  0  0  0  0  0
    6.2224    4.6710   -0.4364 C   0  0  0  0  0  0  0  0  0  0  0  0
    5.6330    3.6329   -0.8380 O   0  0  0  0  0  0  0  0  0  0  0  0
    7.6406    4.6559   -0.2756 N   0  0  0  0  0  0  0  0  0  0  0  0
    8.2609    4.4712    1.0317 C   0  0  2  0  0  0  0  0  0  0  0  0
    8.8757    5.8044    1.4844 C   0  0  0  0  0  0  0  0  0  0  0  0
    9.2679    3.3451    0.9525 C   0  0  0  0  0  0  0  0  0  0  0  0
    8.9146    2.2440    0.4476 O   0  0  0  0  0  0  0  0  0  0  0  0
   10.6009    3.4867    1.4664 N   0  0  0  0  0  0  0  0  0  0  0  0
   11.7973    3.3002    0.6380 C   0  0  2  0  0  0  0  0  0  0  0  0
   11.8454    4.3685   -0.4595 C   0  0  0  0  0  0  0  0  0  0  0  0
   11.8896    1.8974    0.0826 C   0  0  0  0  0  0  0  0  0  0  0  0
   11.6185    1.6795   -1.1306 O   0  0  0  0  0  0  0  0  0  0  0  0
   12.3863    0.8167    0.8862 N   0  0  0  0  0  0  0  0  0  0  0  0
   11.8171    0.4775    2.1878 C   0  0  2  0  0  0  0  0  0  0  0  0
   12.7516    0.9912    3.2886 C   0  0  0  0  0  0  0  0  0  0  0  0
   11.5979   -1.0180    2.3405 C   0  0  0  0  0  0  0  0  0  0  0  0
   11.2129   -1.4535    3.4624 O   0  0  0  0  0  0  0  0  0  0  0  0
   11.8066   -1.9675    1.2780 N   0  0  0  0  0  0  0  0  0  0  0  0
   11.1937   -1.8664   -0.0591 C   0  0  2  0  0  0  0  0  0  0  0  0
    9.6769   -1.6494    0.0630 C   0  0  0  0  0  0  0  0  0  0  0  0
   11.5686   -3.0870   -0.8773 C   0  0  0  0  0  0  0  0  0  0  0  0
   12.7939   -3.3712   -0.9884 O   0  0  0  0  0  0  0  0  0  0  0  0
   10.5923   -3.9259   -1.5248 N   0  0  0  0  0  0  0  0  0  0  0  0
   10.8907   -5.3344   -1.8231 C   0  0  2  0  0  0  0  0  0  0  0  0
    9.8669   -5.9514   -2.7810 C   0  0  0  0  0  0  0  0  0  0  0  0
   11.0137   -6.1370   -0.5407 C   0  0  0  0  0  0  0  0  0  0  0  0
   12.1617   -6.5524   -0.2156 O   0  0  0  0  0  0  0  0  0  0  0  0
    9.8969   -6.4796    0.3019 N   0  0  0  0  0  0  0  0  0  0  0  0
    8.6147   -5.7715    0.3893 C   0  0  2  0  0  0  0  0  0  0  0  0
    8.3618   -5.3559    1.8426 C   0  0  0  0  0  0  0  0  0  0  0  0
    7.5004   -6.6650   -0.0975 C   0  0  0  0  0  0  0  0  0  0  0  0
    7.5249   -7.8898    0.2111 O   0  0  0  0  0  0  0  0  0  0  0  0
    6.4352   -6.1872   -0.9439 N   0  0  0  0  0  0  0  0  0  0  0  0
    5.9145   -4.8139   -0.9241 C   0  0  1  0  0  0  0  0  0  0  0  0
    6.7151   -3.9242   -1.8420 C   0  0  0  0  0  0  0  0  0  0  0  0
    7.0027   -4.3076   -3.1838 N   0  0  0  0  0  0  0  0  0  0  0  0
    7.1065   -2.8041   -1.4233 O   0  0  0  0  0  0  0  0  0  0  0  0
    4.4405   -4.8089   -1.3583 C   0  0  0  0  0  0  0  0  0  0  0  0
    3.7088   -3.1382   -1.1974 S   0  0  0  0  0  0  0  0  0  0  0  0
    2.2015   -3.5177   -2.1526 C   0  0  0  0  0  0  0  0  0  0  0  0
   -5.0095   -8.3863   -1.1695 H   0  0  0  0  0  0  0  0  0  0  0  0
   -3.7850   -8.7080   -2.4613 H   0  0  0  0  0  0  0  0  0  0  0  0
   -4.0797   -7.0180   -1.9314 H   0  0  0  0  0  0  0  0  0  0  0  0
   -2.2790   -7.6822    1.4113 H   0  0  0  0  0  0  0  0  0  0  0  0
   -4.7365   -6.3070    0.2166 H   0  0  0  0  0  0  0  0  0  0  0  0
   -4.1262   -4.5143    1.9856 H   0  0  0  0  0  0  0  0  0  0  0  0
   -2.5678   -5.3818    2.1879 H   0  0  0  0  0  0  0  0  0  0  0  0
   -1.1759   -3.5710    1.6689 H   0  0  0  0  0  0  0  0  0  0  0  0
   -2.4331   -2.3264    1.3232 H   0  0  0  0  0  0  0  0  0  0  0  0
    0.5312   -4.1230   -0.1159 H   0  0  0  0  0  0  0  0  0  0  0  0
    1.2928   -1.1278   -3.0966 H   0  0  0  0  0  0  0  0  0  0  0  0
   -2.1132   -0.7652   -0.4976 H   0  0  0  0  0  0  0  0  0  0  0  0
   -0.0121    0.8815   -3.2002 H   0  0  0  0  0  0  0  0  0  0  0  0
   -1.6337    0.1517   -3.2987 H   0  0  0  0  0  0  0  0  0  0  0  0
    0.5156    1.4492   -0.2167 H   0  0  0  0  0  0  0  0  0  0  0  0
    0.7423    2.5191   -1.6577 H   0  0  0  0  0  0  0  0  0  0  0  0
   -0.7196    4.2676   -0.4457 H   0  0  0  0  0  0  0  0  0  0  0  0
   -0.1395    2.6619    2.0599 H   0  0  0  0  0  0  0  0  0  0  0  0
   -3.3522    4.0744    2.9135 H   0  0  0  0  0  0  0  0  0  0  0  0
   -1.5646    5.6361    2.5939 H   0  0  0  0  0  0  0  0  0  0  0  0
   -3.0887    6.3952    2.0311 H   0  0  0  0  0  0  0  0  0  0  0  0
   -1.8940    5.7865    0.8245 H   0  0  0  0  0  0  0  0  0  0  0  0
   -5.1396    3.8778    1.4715 H   0  0  0  0  0  0  0  0  0  0  0  0
   -4.1403    6.4861   -0.3374 H   0  0  0  0  0  0  0  0  0  0  0  0
   -2.9505    4.8994   -2.6980 H   0  0  0  0  0  0  0  0  0  0  0  0
   -2.0665    5.8279   -1.4300 H   0  0  0  0  0  0  0  0  0  0  0  0
   -3.0706    6.6926   -2.6252 H   0  0  0  0  0  0  0  0  0  0  0  0
   -5.4141    5.6245   -2.8968 H   0  0  0  0  0  0  0  0  0  0  0  0
   -6.1520    6.1489    0.7399 H   0  0  0  0  0  0  0  0  0  0  0  0
   -8.6545    7.7971    0.0090 H   0  0  0  0  0  0  0  0  0  0  0  0
   -7.7848    7.7492    1.5932 H   0  0  0  0  0  0  0  0  0  0  0  0
   -6.9816    8.4914    0.1590 H   0  0  0  0  0  0  0  0  0  0  0  0
   -8.2363    4.5181   -0.3423 H   0  0  0  0  0  0  0  0  0  0  0  0
   -9.9584    3.4199    2.0288 H   0  0  0  0  0  0  0  0  0  0  0  0
  -11.9011    4.8129    2.8835 H   0  0  0  0  0  0  0  0  0  0  0  0
  -10.8547    6.2792    2.7568 H   0  0  0  0  0  0  0  0  0  0  0  0
  -10.4099    4.9360    3.8842 H   0  0  0  0  0  0  0  0  0  0  0  0
  -10.8405    5.6751    0.1586 H   0  0  0  0  0  0  0  0  0  0  0  0
  -10.4786    1.9030    0.6119 H   0  0  0  0  0  0  0  0  0  0  0  0
  -13.5265    2.2261    0.4362 H   0  0  0  0  0  0  0  0  0  0  0  0
  -12.6099    0.9372    1.3189 H   0  0  0  0  0  0  0  0  0  0  0  0
  -12.5025    2.6474    1.8681 H   0  0  0  0  0  0  0  0  0  0  0  0
  -12.4219    1.3629   -1.6374 H   0  0  0  0  0  0  0  0  0  0  0  0
   -8.7935   -0.5378   -2.0073 H   0  0  0  0  0  0  0  0  0  0  0  0
   -7.2644    0.4963   -0.3924 H   0  0  0  0  0  0  0  0  0  0  0  0
   -7.6909    1.6057   -1.7398 H   0  0  0  0  0  0  0  0  0  0  0  0
   -8.4116    1.8510   -0.1145 H   0  0  0  0  0  0  0  0  0  0  0  0
   -9.4475   -0.3456    0.8564 H   0  0  0  0  0  0  0  0  0  0  0  0
  -11.5212   -3.5150   -0.8757 H   0  0  0  0  0  0  0  0  0  0  0  0
  -10.6236   -2.0499   -2.8595 H   0  0  0  0  0  0  0  0  0  0  0  0
   -8.9918   -2.7076   -2.3973 H   0  0  0  0  0  0  0  0  0  0  0  0
  -10.3072   -3.8199   -2.8728 H   0  0  0  0  0  0  0  0  0  0  0  0
   -9.1316   -3.3755    0.7419 H   0  0  0  0  0  0  0  0  0  0  0  0
   -7.8916   -6.6562    0.1585 H   0  0  0  0  0  0  0  0  0  0  0  0
   -8.0515   -6.7660   -2.2862 H   0  0  0  0  0  0  0  0  0  0  0  0
   -6.3755   -6.3421   -1.8045 H   0  0  0  0  0  0  0  0  0  0  0  0
   -7.4786   -5.0665   -2.4404 H   0  0  0  0  0  0  0  0  0  0  0  0
   -6.6520   -3.9388   -0.3323 H   0  0  0  0  0  0  0  0  0  0  0  0
   -6.4775   -5.4220    3.6006 H   0  0  0  0  0  0  0  0  0  0  0  0
   -8.4879   -6.7440    3.8511 H   0  0  0  0  0  0  0  0  0  0  0  0
   -9.0222   -6.3925    2.1700 H   0  0  0  0  0  0  0  0  0  0  0  0
   -8.9387   -5.0597    3.3883 H   0  0  0  0  0  0  0  0  0  0  0  0
   -6.8769   -7.8196    2.1029 H   0  0  0  0  0  0  0  0  0  0  0  0
    0.6425    5.4622    1.9648 H   0  0  0  0  0  0  0  0  0  0  0  0
    1.3911    7.5012    1.2817 H   0  0  0  0  0  0  0  0  0  0  0  0
    2.0509    6.1988   -1.4330 H   0  0  0  0  0  0  0  0  0  0  0  0
    1.9286    7.9616   -1.0643 H   0  0  0  0  0  0  0  0  0  0  0  0
    0.4673    6.9074   -0.9408 H   0  0  0  0  0  0  0  0  0  0  0  0
    4.1080    4.7722    1.0420 H   0  0  0  0  0  0  0  0  0  0  0  0
    6.0998    6.6896    0.2813 H   0  0  0  0  0  0  0  0  0  0  0  0
    4.5570    7.5149   -1.4502 H   0  0  0  0  0  0  0  0  0  0  0  0
    4.3409    5.8451   -2.1026 H   0  0  0  0  0  0  0  0  0  0  0  0
    5.9411    6.6709   -2.2262 H   0  0  0  0  0  0  0  0  0  0  0  0
    8.2288    4.5810   -1.1381 H   0  0  0  0  0  0  0  0  0  0  0  0
    7.4873    4.1783    1.7776 H   0  0  0  0  0  0  0  0  0  0  0  0
    8.0908    6.5900    1.5032 H   0  0  0  0  0  0  0  0  0  0  0  0
    9.6699    6.1194    0.7745 H   0  0  0  0  0  0  0  0  0  0  0  0
    9.2899    5.7264    2.5102 H   0  0  0  0  0  0  0  0  0  0  0  0
   10.7274    3.9041    2.4157 H   0  0  0  0  0  0  0  0  0  0  0  0
   12.6936    3.4676    1.2702 H   0  0  0  0  0  0  0  0  0  0  0  0
   12.7574    4.2496   -1.0826 H   0  0  0  0  0  0  0  0  0  0  0  0
   11.8681    5.3755   -0.0017 H   0  0  0  0  0  0  0  0  0  0  0  0
   10.9600    4.2989   -1.1202 H   0  0  0  0  0  0  0  0  0  0  0  0
   13.2155    0.2829    0.5346 H   0  0  0  0  0  0  0  0  0  0  0  0
   10.8290    0.9714    2.3112 H   0  0  0  0  0  0  0  0  0  0  0  0
   12.8977    2.0867    3.1936 H   0  0  0  0  0  0  0  0  0  0  0  0
   13.7424    0.4955    3.2198 H   0  0  0  0  0  0  0  0  0  0  0  0
   12.3196    0.7965    4.2934 H   0  0  0  0  0  0  0  0  0  0  0  0
   12.1907   -2.8928    1.5743 H   0  0  0  0  0  0  0  0  0  0  0  0
   11.6159   -1.0001   -0.5950 H   0  0  0  0  0  0  0  0  0  0  0  0
    9.2452   -1.4412   -0.9368 H   0  0  0  0  0  0  0  0  0  0  0  0
    9.1894   -2.5376    0.5158 H   0  0  0  0  0  0  0  0  0  0  0  0
    9.4634   -0.7653    0.6961 H   0  0  0  0  0  0  0  0  0  0  0  0
    9.6602   -3.5397   -1.7689 H   0  0  0  0  0  0  0  0  0  0  0  0
   11.8623   -5.3697   -2.3598 H   0  0  0  0  0  0  0  0  0  0  0  0
    9.8604   -5.3924   -3.7409 H   0  0  0  0  0  0  0  0  0  0  0  0
    8.8492   -5.9257   -2.3585 H   0  0  0  0  0  0  0  0  0  0  0  0
   10.1224   -7.0125   -2.9902 H   0  0  0  0  0  0  0  0  0  0  0  0
   10.0517   -7.2681    0.9721 H   0  0  0  0  0  0  0  0  0  0  0  0
    8.6433   -4.8519   -0.2082 H   0  0  0  0  0  0  0  0  0  0  0  0
    8.3152   -6.2468    2.5028 H   0  0  0  0  0  0  0  0  0  0  0  0
    9.1852   -4.6970    2.1945 H   0  0  0  0  0  0  0  0  0  0  0  0
    7.4077   -4.7960    1.9317 H   0  0  0  0  0  0  0  0  0  0  0  0
    5.8911   -6.9197   -1.4532 H   0  0  0  0  0  0  0  0  0  0  0  0
    5.9516   -4.4291    0.1156 H   0  0  0  0  0  0  0  0  0  0  0  0
    6.7012   -5.2430   -3.5457 H   0  0  0  0  0  0  0  0  0  0  0  0
    7.5840   -3.6932   -3.7968 H   0  0  0  0  0  0  0  0  0  0  0  0
    3.8670   -5.4982   -0.7053 H   0  0  0  0  0  0  0  0  0  0  0  0
    4.3494   -5.1693   -2.4040 H   0  0  0  0  0  0  0  0  0  0  0  0
    1.9330   -4.5943   -2.0622 H   0  0  0  0  0  0  0  0  0  0  0  0
    2.3840   -3.3063   -3.2279 H   0  0  0  0  0  0  0  0  0  0  0  0
  1  2  1  0
  2  3  2  0
  2  4  1  0
  4  5  1  0
  5  6  1  0
  6  7  1  0
  7  8  1  0
  8  9  1  0
  9 10  1  0
 10 11  2  0
 11 12  1  0
 12 13  2  0
 13 14  1  0
 13 15  1  0
 15 16  1  0
 16 17  1  0
 17 18  1  0
 18 19  1  0
 19 20  1  0
 20 21  2  0
 20 22  1  0
 22 23  1  0
 22 24  1  0
 24 25  1  0
 25 26  2  0
 25 27  1  0
 27 28  1  0
 27 29  1  0
 29 30  1  0
 30 31  2  0
 30 32  1  0
 32 33  1  0
 32 34  1  0
 34 35  1  0
 35 36  2  0
 35 37  1  0
 37 38  1  0
 37 39  1  0
 39 40  1  0
 40 41  2  0
 40 42  1  0
 42 43  1  0
 42 44  1  0
 44 45  1  0
 45 46  2  0
 45 47  1  0
 47 48  1  0
 47 49  1  0
 49 50  1  0
 50 51  2  0
 50 52  1  0
 52 53  1  0
 52 54  1  0
 54 55  1  0
 55 56  2  0
 55 57  1  0
 57 58  1  0
 57 59  1  0
 59 60  1  0
 60 61  2  0
 60 62  1  0
 62 63  1  0
 62 64  1  0
 64 65  1  0
 65 66  2  0
 18 67  1  0
 67 68  2  0
 67 69  1  0
 69 70  1  0
 70 71  1  0
 70 72  1  0
 72 73  2  0
 72 74  1  0
 74 75  1  0
 75 76  1  0
 75 77  1  0
 77 78  2  0
 77 79  1  0
 79 80  1  0
 80 81  1  0
 80 82  1  0
 82 83  2  0
 82 84  1  0
 84 85  1  0
 85 86  1  0
 85 87  1  0
 87 88  2  0
 87 89  1  0
 89 90  1  0
 90 91  1  0
 90 92  1  0
 92 93  2  0
 92 94  1  0
 94 95  1  0
 95 96  1  0
 95 97  1  0
 97 98  2  0
 97 99  1  0
 99100  1  0
100101  1  0
100102  1  0
102103  2  0
102104  1  0
104105  1  0
105106  1  0
105107  1  0
107108  2  0
107109  1  0
109110  1  0
110111  1  0
111112  1  0
111113  2  0
110114  1  0
114115  1  0
115116  1  0
 65  5  1  0
 14  9  2  0
116 11  1  0
  1117  1  0
  1118  1  0
  1119  1  0
  4120  1  0
  5121  1  6
  6122  1  0
  6123  1  0
  8124  1  0
  8125  1  0
 10126  1  0
 12127  1  0
 14128  1  0
 15129  1  0
 15130  1  0
 17131  1  0
 17132  1  0
 18133  1  6
 19134  1  0
 22135  1  1
 23136  1  0
 23137  1  0
 23138  1  0
 24139  1  0
 27140  1  1
 28141  1  0
 28142  1  0
 28143  1  0
 29144  1  0
 32145  1  1
 33146  1  0
 33147  1  0
 33148  1  0
 34149  1  0
 37150  1  1
 38151  1  0
 38152  1  0
 38153  1  0
 39154  1  0
 42155  1  1
 43156  1  0
 43157  1  0
 43158  1  0
 44159  1  0
 47160  1  6
 48161  1  0
 48162  1  0
 48163  1  0
 49164  1  0
 52165  1  6
 53166  1  0
 53167  1  0
 53168  1  0
 54169  1  0
 57170  1  1
 58171  1  0
 58172  1  0
 58173  1  0
 59174  1  0
 62175  1  1
 63176  1  0
 63177  1  0
 63178  1  0
 64179  1  0
 69180  1  0
 70181  1  1
 71182  1  0
 71183  1  0
 71184  1  0
 74185  1  0
 75186  1  1
 76187  1  0
 76188  1  0
 76189  1  0
 79190  1  0
 80191  1  1
 81192  1  0
 81193  1  0
 81194  1  0
 84195  1  0
 85196  1  1
 86197  1  0
 86198  1  0
 86199  1  0
 89200  1  0
 90201  1  1
 91202  1  0
 91203  1  0
 91204  1  0
 94205  1  0
 95206  1  6
 96207  1  0
 96208  1  0
 96209  1  0
 99210  1  0
100211  1  6
101212  1  0
101213  1  0
101214  1  0
104215  1  0
105216  1  6
106217  1  0
106218  1  0
106219  1  0
109220  1  0
110221  1  1
112222  1  0
112223  1  0
114224  1  0
114225  1  0
116226  1  0
116227  1  0
M  END
