
     RDKit          3D

147149  0  0  0  0  0  0  0  0999 V2000
   10.4145    1.4510    2.4426 C   0  0  0  0  0  0  0  0  0  0  0  0
    9.3643    0.7584    3.2651 C   0  0  0  0  0  0  0  0  0  0  0  0
    9.6028    0.5283    4.4786 O   0  0  0  0  0  0  0  0  0  0  0  0
    8.0942    0.3638    2.7125 N   0  0  0  0  0  0  0  0  0  0  0  0
    7.5012    0.8864    1.4702 C   0  0  1  0  0  0  0  0  0  0  0  0
    7.1959    2.4001    1.6187 C   0  0  0  0  0  0  0  0  0  0  0  0
    5.4180    2.7676    1.3762 S   0  0  0  0  0  0  0  0  0  0  0  0
    5.4796    2.8974   -0.4455 C   0  0  0  0  0  0  0  0  0  0  0  0
    4.1887    2.4023   -1.0255 C   0  0  0  0  0  0  0  0  0  0  0  0
    3.0045    3.1376   -0.8648 C   0  0  0  0  0  0  0  0  0  0  0  0
    1.7941    2.6645   -1.4010 C   0  0  0  0  0  0  0  0  0  0  0  0
    1.7871    1.4691   -2.1425 C   0  0  0  0  0  0  0  0  0  0  0  0
    2.9764    0.7439   -2.3444 C   0  0  0  0  0  0  0  0  0  0  0  0
    4.1709    1.2024   -1.7524 C   0  0  0  0  0  0  0  0  0  0  0  0
    2.9282   -0.5427   -3.1379 C   0  0  0  0  0  0  0  0  0  0  0  0
    4.5417   -0.9262   -3.9358 S   0  0  0  0  0  0  0  0  0  0  0  0
    4.6818   -2.6803   -3.4228 C   0  0  0  0  0  0  0  0  0  0  0  0
    4.9598   -2.8853   -1.9136 C   0  0  2  0  0  0  0  0  0  0  0  0
    6.1371   -2.1530   -1.4441 N   0  0  0  0  0  0  0  0  0  0  0  0
    6.4302   -2.1099   -0.0386 C   0  0  0  0  0  0  0  0  0  0  0  0
    5.4974   -2.2289    0.8008 O   0  0  0  0  0  0  0  0  0  0  0  0
    7.8428   -1.9940    0.4653 C   0  0  1  0  0  0  0  0  0  0  0  0
    8.6007   -3.2877    0.1898 C   0  0  0  0  0  0  0  0  0  0  0  0
    8.5327   -0.8579   -0.1480 N   0  0  0  0  0  0  0  0  0  0  0  0
    8.3443    0.5171    0.2593 C   0  0  0  0  0  0  0  0  0  0  0  0
    8.9326    1.4139   -0.4006 O   0  0  0  0  0  0  0  0  0  0  0  0
    5.1737   -4.3531   -1.6297 C   0  0  0  0  0  0  0  0  0  0  0  0
    5.9568   -5.0225   -2.3577 O   0  0  0  0  0  0  0  0  0  0  0  0
    4.6705   -4.9482   -0.4288 N   0  0  0  0  0  0  0  0  0  0  0  0
    3.2397   -5.0622   -0.1156 C   0  0  2  0  0  0  0  0  0  0  0  0
    3.0934   -4.9452    1.4064 C   0  0  0  0  0  0  0  0  0  0  0  0
    2.7266   -6.3918   -0.6505 C   0  0  0  0  0  0  0  0  0  0  0  0
    3.4751   -7.0514   -1.4262 O   0  0  0  0  0  0  0  0  0  0  0  0
    1.4354   -6.9454   -0.3475 N   0  0  0  0  0  0  0  0  0  0  0  0
    0.2721   -6.2542    0.2246 C   0  0  2  0  0  0  0  0  0  0  0  0
    0.0405   -6.8430    1.6256 C   0  0  0  0  0  0  0  0  0  0  0  0
   -0.9355   -6.4647   -0.6745 C   0  0  0  0  0  0  0  0  0  0  0  0
   -0.7811   -7.1114   -1.7532 O   0  0  0  0  0  0  0  0  0  0  0  0
   -2.2575   -5.9691   -0.3861 N   0  0  0  0  0  0  0  0  0  0  0  0
   -2.6318   -5.0431    0.6879 C   0  0  2  0  0  0  0  0  0  0  0  0
   -3.4318   -5.7988    1.7477 C   0  0  0  0  0  0  0  0  0  0  0  0
   -3.4602   -3.9029    0.1483 C   0  0  0  0  0  0  0  0  0  0  0  0
   -3.0546   -2.7145    0.2932 O   0  0  0  0  0  0  0  0  0  0  0  0
   -4.6914   -4.1492   -0.5389 N   0  0  0  0  0  0  0  0  0  0  0  0
   -5.9598   -3.5532   -0.0953 C   0  0  2  0  0  0  0  0  0  0  0  0
   -6.7915   -4.6413    0.5932 C   0  0  0  0  0  0  0  0  0  0  0  0
   -6.7238   -2.9991   -1.2795 C   0  0  0  0  0  0  0  0  0  0  0  0
   -6.4799   -3.4575   -2.4317 O   0  0  0  0  0  0  0  0  0  0  0  0
   -7.7969   -2.0468   -1.1444 N   0  0  0  0  0  0  0  0  0  0  0  0
   -7.9488   -1.0533   -0.0646 C   0  0  2  0  0  0  0  0  0  0  0  0
   -8.4739   -1.7102    1.2260 C   0  0  0  0  0  0  0  0  0  0  0  0
   -8.9223    0.0149   -0.5067 C   0  0  0  0  0  0  0  0  0  0  0  0
  -10.0983   -0.3155   -0.8250 O   0  0  0  0  0  0  0  0  0  0  0  0
   -8.5251    1.3840   -0.6740 N   0  0  0  0  0  0  0  0  0  0  0  0
   -7.9828    2.1999    0.4193 C   0  0  2  0  0  0  0  0  0  0  0  0
   -8.9665    2.2496    1.5955 C   0  0  0  0  0  0  0  0  0  0  0  0
   -7.7459    3.6209   -0.0472 C   0  0  0  0  0  0  0  0  0  0  0  0
   -8.6648    4.2362   -0.6507 O   0  0  0  0  0  0  0  0  0  0  0  0
   -6.5696    4.3436    0.3288 N   0  0  0  0  0  0  0  0  0  0  0  0
   -5.2113    3.8544    0.0785 C   0  0  2  0  0  0  0  0  0  0  0  0
   -4.5035    3.5477    1.4007 C   0  0  0  0  0  0  0  0  0  0  0  0
   -4.4542    4.8564   -0.7567 C   0  0  0  0  0  0  0  0  0  0  0  0
   -3.8488    4.4584   -1.7863 O   0  0  0  0  0  0  0  0  0  0  0  0
   -4.4417    6.2605   -0.4389 N   0  0  0  0  0  0  0  0  0  0  0  0
   -3.7296    6.8194    0.7127 C   0  0  2  0  0  0  0  0  0  0  0  0
   -4.7297    7.3811    1.7298 C   0  0  0  0  0  0  0  0  0  0  0  0
   -2.7765    7.8939    0.2443 C   0  0  0  0  0  0  0  0  0  0  0  0
   -3.1961    9.0697    0.0820 O   0  0  0  0  0  0  0  0  0  0  0  0
   -1.3911    7.6165    0.0013 N   0  0  0  0  0  0  0  0  0  0  0  0
   -0.9315    6.3750   -0.6218 C   0  0  1  0  0  0  0  0  0  0  0  0
   -0.7033    6.6248   -2.0870 C   0  0  0  0  0  0  0  0  0  0  0  0
    0.2654    7.5828   -2.5185 N   0  0  0  0  0  0  0  0  0  0  0  0
   -1.3783    5.9906   -2.9430 O   0  0  0  0  0  0  0  0  0  0  0  0
    0.3484    5.8660    0.0777 C   0  0  0  0  0  0  0  0  0  0  0  0
    0.2701    4.0683    0.4353 S   0  0  0  0  0  0  0  0  0  0  0  0
    0.5379    3.4887   -1.2895 C   0  0  0  0  0  0  0  0  0  0  0  0
   11.2799    1.7239    3.0792 H   0  0  0  0  0  0  0  0  0  0  0  0
   10.7726    0.7730    1.6401 H   0  0  0  0  0  0  0  0  0  0  0  0
   10.0037    2.3779    2.0017 H   0  0  0  0  0  0  0  0  0  0  0  0
    7.4812   -0.2392    3.3121 H   0  0  0  0  0  0  0  0  0  0  0  0
    6.5276    0.3624    1.3255 H   0  0  0  0  0  0  0  0  0  0  0  0
    7.4342    2.7298    2.6547 H   0  0  0  0  0  0  0  0  0  0  0  0
    7.8095    3.0456    0.9524 H   0  0  0  0  0  0  0  0  0  0  0  0
    6.3342    2.3182   -0.8523 H   0  0  0  0  0  0  0  0  0  0  0  0
    5.6419    3.9582   -0.7304 H   0  0  0  0  0  0  0  0  0  0  0  0
    3.0362    4.0737   -0.3233 H   0  0  0  0  0  0  0  0  0  0  0  0
    0.8596    1.1014   -2.5773 H   0  0  0  0  0  0  0  0  0  0  0  0
    5.0899    0.6324   -1.8503 H   0  0  0  0  0  0  0  0  0  0  0  0
    2.5606   -1.3628   -2.4784 H   0  0  0  0  0  0  0  0  0  0  0  0
    2.1930   -0.4362   -3.9650 H   0  0  0  0  0  0  0  0  0  0  0  0
    3.7601   -3.2185   -3.7134 H   0  0  0  0  0  0  0  0  0  0  0  0
    5.5204   -3.1124   -4.0156 H   0  0  0  0  0  0  0  0  0  0  0  0
    4.0735   -2.5359   -1.3448 H   0  0  0  0  0  0  0  0  0  0  0  0
    6.5046   -1.3415   -2.0079 H   0  0  0  0  0  0  0  0  0  0  0  0
    7.8384   -1.8752    1.5678 H   0  0  0  0  0  0  0  0  0  0  0  0
    8.0942   -4.1439    0.6898 H   0  0  0  0  0  0  0  0  0  0  0  0
    9.6363   -3.2192    0.5764 H   0  0  0  0  0  0  0  0  0  0  0  0
    8.6414   -3.4953   -0.9041 H   0  0  0  0  0  0  0  0  0  0  0  0
    9.1355   -1.0292   -0.9834 H   0  0  0  0  0  0  0  0  0  0  0  0
    5.3158   -5.6225    0.0437 H   0  0  0  0  0  0  0  0  0  0  0  0
    2.6756   -4.2314   -0.5957 H   0  0  0  0  0  0  0  0  0  0  0  0
    3.7045   -4.0948    1.7814 H   0  0  0  0  0  0  0  0  0  0  0  0
    3.4396   -5.8656    1.9134 H   0  0  0  0  0  0  0  0  0  0  0  0
    2.0549   -4.7247    1.7036 H   0  0  0  0  0  0  0  0  0  0  0  0
    1.3196   -7.9663   -0.5530 H   0  0  0  0  0  0  0  0  0  0  0  0
    0.4538   -5.1652    0.2853 H   0  0  0  0  0  0  0  0  0  0  0  0
   -0.6212   -6.2082    2.2425 H   0  0  0  0  0  0  0  0  0  0  0  0
    1.0074   -6.9030    2.1699 H   0  0  0  0  0  0  0  0  0  0  0  0
   -0.3633   -7.8721    1.5512 H   0  0  0  0  0  0  0  0  0  0  0  0
   -3.0290   -6.3612   -0.9738 H   0  0  0  0  0  0  0  0  0  0  0  0
   -1.7290   -4.6176    1.1614 H   0  0  0  0  0  0  0  0  0  0  0  0
   -4.3546   -6.2290    1.3104 H   0  0  0  0  0  0  0  0  0  0  0  0
   -2.8476   -6.6381    2.1730 H   0  0  0  0  0  0  0  0  0  0  0  0
   -3.7203   -5.1120    2.5756 H   0  0  0  0  0  0  0  0  0  0  0  0
   -4.7273   -4.9335   -1.2150 H   0  0  0  0  0  0  0  0  0  0  0  0
   -5.7450   -2.7261    0.6161 H   0  0  0  0  0  0  0  0  0  0  0  0
   -6.7552   -5.5859    0.0122 H   0  0  0  0  0  0  0  0  0  0  0  0
   -7.8602   -4.3544    0.6787 H   0  0  0  0  0  0  0  0  0  0  0  0
   -6.3965   -4.8355    1.6093 H   0  0  0  0  0  0  0  0  0  0  0  0
   -8.3878   -1.9348   -1.9996 H   0  0  0  0  0  0  0  0  0  0  0  0
   -6.9617   -0.5838    0.1392 H   0  0  0  0  0  0  0  0  0  0  0  0
   -9.3397   -2.3675    0.9982 H   0  0  0  0  0  0  0  0  0  0  0  0
   -7.6820   -2.3024    1.7214 H   0  0  0  0  0  0  0  0  0  0  0  0
   -8.7899   -0.9396    1.9589 H   0  0  0  0  0  0  0  0  0  0  0  0
   -8.8479    1.8571   -1.5501 H   0  0  0  0  0  0  0  0  0  0  0  0
   -7.0276    1.7516    0.7717 H   0  0  0  0  0  0  0  0  0  0  0  0
   -9.9161    2.7218    1.2771 H   0  0  0  0  0  0  0  0  0  0  0  0
   -8.5406    2.8554    2.4224 H   0  0  0  0  0  0  0  0  0  0  0  0
   -9.1846    1.2393    1.9798 H   0  0  0  0  0  0  0  0  0  0  0  0
   -6.6949    5.3406    0.6103 H   0  0  0  0  0  0  0  0  0  0  0  0
   -5.2589    2.8951   -0.4915 H   0  0  0  0  0  0  0  0  0  0  0  0
   -3.4326    3.3175    1.2191 H   0  0  0  0  0  0  0  0  0  0  0  0
   -4.9727    2.6689    1.8821 H   0  0  0  0  0  0  0  0  0  0  0  0
   -4.5821    4.3946    2.1067 H   0  0  0  0  0  0  0  0  0  0  0  0
   -4.9045    6.9089   -1.1120 H   0  0  0  0  0  0  0  0  0  0  0  0
   -3.1411    6.0289    1.2253 H   0  0  0  0  0  0  0  0  0  0  0  0
   -5.3617    8.1683    1.2637 H   0  0  0  0  0  0  0  0  0  0  0  0
   -4.1922    7.8124    2.5980 H   0  0  0  0  0  0  0  0  0  0  0  0
   -5.4091    6.5832    2.0953 H   0  0  0  0  0  0  0  0  0  0  0  0
   -0.7311    8.4244    0.0194 H   0  0  0  0  0  0  0  0  0  0  0  0
   -1.7142    5.5978   -0.5220 H   0  0  0  0  0  0  0  0  0  0  0  0
    0.8458    8.1083   -1.8358 H   0  0  0  0  0  0  0  0  0  0  0  0
    0.4213    7.7471   -3.5413 H   0  0  0  0  0  0  0  0  0  0  0  0
    0.4653    6.3679    1.0570 H   0  0  0  0  0  0  0  0  0  0  0  0
    1.2699    6.0908   -0.5026 H   0  0  0  0  0  0  0  0  0  0  0  0
    0.6328    4.3286   -2.0073 H   0  0  0  0  0  0  0  0  0  0  0  0
   -0.3503    2.8860   -1.5779 H   0  0  0  0  0  0  0  0  0  0  0  0
  1  2  1  0
  2  3  2  0
  2  4  1  0
  4  5  1  0
  5  6  1  0
  6  7  1  0
  7  8  1  0
  8  9  1  0
  9 10  1  0
 10 11  2  0
 11 12  1  0
 12 13  2  0
 13 14  1  0
 13 15  1  0
 15 16  1  0
 16 17  1  0
 17 18  1  0
 18 19  1  0
 19 20  1  0
 20 21  2  0
 20 22  1  0
 22 23  1  0
 22 24  1  0
 24 25  1  0
 25 26  2  0
 18 27  1  0
 27 28  2  0
 27 29  1  0
 29 30  1  0
 30 31  1  0
 30 32  1  0
 32 33  2  0
 32 34  1  0
 34 35  1  0
 35 36  1  0
 35 37  1  0
 37 38  2  0
 37 39  1  0
 39 40  1  0
 40 41  1  0
 40 42  1  0
 42 43  2  0
 42 44  1  0
 44 45  1  0
 45 46  1  0
 45 47  1  0
 47 48  2  0
 47 49  1  0
 49 50  1  0
 50 51  1  0
 50 52  1  0
 52 53  2  0
 52 54  1  0
 54 55  1  0
 55 56  1  0
 55 57  1  0
 57 58  2  0
 57 59  1  0
 59 60  1  0
 60 61  1  0
 60 62  1  0
 62 63  2  0
 62 64  1  0
 64 65  1  0
 65 66  1  0
 65 67  1  0
 67 68  2  0
 67 69  1  0
 69 70  1  0
 70 71  1  0
 71 72  1  0
 71 73  2  0
 70 74  1  0
 74 75  1  0
 75 76  1  0
 25  5  1  0
 14  9  2  0
 76 11  1  0
  1 77  1  0
  1 78  1  0
  1 79  1  0
  4 80  1  0
  5 81  1  6
  6 82  1  0
  6 83  1  0
  8 84  1  0
  8 85  1  0
 10 86  1  0
 12 87  1  0
 14 88  1  0
 15 89  1  0
 15 90  1  0
 17 91  1  0
 17 92  1  0
 18 93  1  1
 19 94  1  0
 22 95  1  1
 23 96  1  0
 23 97  1  0
 23 98  1  0
 24 99  1  0
 29100  1  0
 30101  1  6
 31102  1  0
 31103  1  0
 31104  1  0
 34105  1  0
 35106  1  1
 36107  1  0
 36108  1  0
 36109  1  0
 39110  1  0
 40111  1  1
 41112  1  0
 41113  1  0
 41114  1  0
 44115  1  0
 45116  1  1
 46117  1  0
 46118  1  0
 46119  1  0
 49120  1  0
 50121  1  1
 51122  1  0
 51123  1  0
 51124  1  0
 54125  1  0
 55126  1  1
 56127  1  0
 56128  1  0
 56129  1  0
 59130  1  0
 60131  1  6
 61132  1  0
 61133  1  0
 61134  1  0
 64135  1  0
 65136  1  1
 66137  1  0
 66138  1  0
 66139  1  0
 69140  1  0
 70141  1  6
 72142  1  0
 72143  1  0
 74144  1  0
 74145  1  0
 76146  1  0
 76147  1  0
M  END
