
     RDKit          3D

247249  0  0  0  0  0  0  0  0999 V2000
   -5.7431   10.0800    1.1931 C   0  0  0  0  0  0  0  0  0  0  0  0
   -5.3341    8.6936    1.5654 C   0  0  0  0  0  0  0  0  0  0  0  0
   -4.8678    8.4878    2.7193 O   0  0  0  0  0  0  0  0  0  0  0  0
   -5.4569    7.6181    0.6156 N   0  0  0  0  0  0  0  0  0  0  0  0
   -5.0776    6.2220    0.8800 C   0  0  1  0  0  0  0  0  0  0  0  0
   -3.5627    6.1118    1.1508 C   0  0  0  0  0  0  0  0  0  0  0  0
   -2.9691    4.3743    1.1272 S   0  0  0  0  0  0  0  0  0  0  0  0
   -3.1296    4.1068   -0.6766 C   0  0  0  0  0  0  0  0  0  0  0  0
   -1.9681    3.2948   -1.1882 C   0  0  0  0  0  0  0  0  0  0  0  0
   -2.1059    1.9169   -1.4203 C   0  0  0  0  0  0  0  0  0  0  0  0
   -1.0450    1.1728   -1.9679 C   0  0  0  0  0  0  0  0  0  0  0  0
    0.1446    1.8365   -2.3101 C   0  0  0  0  0  0  0  0  0  0  0  0
    0.3073    3.2026   -2.0434 C   0  0  0  0  0  0  0  0  0  0  0  0
   -0.7486    3.9278   -1.4787 C   0  0  0  0  0  0  0  0  0  0  0  0
    1.5867    3.8902   -2.4428 C   0  0  0  0  0  0  0  0  0  0  0  0
    3.0207    3.1433   -1.5868 S   0  0  0  0  0  0  0  0  0  0  0  0
    2.9171    4.1222   -0.0437 C   0  0  0  0  0  0  0  0  0  0  0  0
    3.9424    5.2777   -0.0591 C   0  0  1  0  0  0  0  0  0  0  0  0
    3.4810    6.3521   -1.0060 C   0  0  0  0  0  0  0  0  0  0  0  0
    4.1434    6.5420   -2.2580 N   0  0  0  0  0  0  0  0  0  0  0  0
    2.5098    7.0968   -0.6928 O   0  0  0  0  0  0  0  0  0  0  0  0
    4.1196    5.8354    1.2884 N   0  0  0  0  0  0  0  0  0  0  0  0
    5.2143    6.6821    1.6916 C   0  0  0  0  0  0  0  0  0  0  0  0
    5.3647    6.9260    2.9165 O   0  0  0  0  0  0  0  0  0  0  0  0
    6.2059    7.2705    0.7016 C   0  0  1  0  0  0  0  0  0  0  0  0
    6.4734    8.7425    1.0273 C   0  0  0  0  0  0  0  0  0  0  0  0
    7.4608    6.5157    0.7131 N   0  0  0  0  0  0  0  0  0  0  0  0
    8.4703    6.7547   -0.2784 C   0  0  0  0  0  0  0  0  0  0  0  0
    8.1497    6.7593   -1.4980 O   0  0  0  0  0  0  0  0  0  0  0  0
    9.8648    7.1698    0.1120 C   0  0  1  0  0  0  0  0  0  0  0  0
   10.2245    6.8849    1.5747 C   0  0  0  0  0  0  0  0  0  0  0  0
   10.8795    6.6281   -0.8066 N   0  0  0  0  0  0  0  0  0  0  0  0
   11.3425    5.2694   -0.8924 C   0  0  0  0  0  0  0  0  0  0  0  0
   12.4405    5.0441   -1.4687 O   0  0  0  0  0  0  0  0  0  0  0  0
   10.5645    4.0925   -0.3518 C   0  0  1  0  0  0  0  0  0  0  0  0
   10.1927    3.1372   -1.4989 C   0  0  0  0  0  0  0  0  0  0  0  0
   11.3302    3.4479    0.7214 N   0  0  0  0  0  0  0  0  0  0  0  0
   11.7351    2.0753    0.7362 C   0  0  0  0  0  0  0  0  0  0  0  0
   11.1740    1.2822    1.5377 O   0  0  0  0  0  0  0  0  0  0  0  0
   12.9500    1.6303   -0.0361 C   0  0  1  0  0  0  0  0  0  0  0  0
   14.1864    1.7907    0.8593 C   0  0  0  0  0  0  0  0  0  0  0  0
   12.8069    0.2373   -0.4787 N   0  0  0  0  0  0  0  0  0  0  0  0
   13.8656   -0.4713   -1.1274 C   0  0  0  0  0  0  0  0  0  0  0  0
   14.5462    0.1079   -2.0205 O   0  0  0  0  0  0  0  0  0  0  0  0
   14.1221   -1.9216   -0.7859 C   0  0  1  0  0  0  0  0  0  0  0  0
   15.5987   -2.2835   -0.9842 C   0  0  0  0  0  0  0  0  0  0  0  0
   13.7611   -2.1755    0.6111 N   0  0  0  0  0  0  0  0  0  0  0  0
   12.5728   -2.8835    0.9971 C   0  0  0  0  0  0  0  0  0  0  0  0
   11.7343   -2.2919    1.7327 O   0  0  0  0  0  0  0  0  0  0  0  0
   12.2852   -4.3103    0.5667 C   0  0  1  0  0  0  0  0  0  0  0  0
   13.5541   -5.0770    0.1750 C   0  0  0  0  0  0  0  0  0  0  0  0
   11.6330   -5.0235    1.6706 N   0  0  0  0  0  0  0  0  0  0  0  0
   10.7545   -6.1535    1.5275 C   0  0  0  0  0  0  0  0  0  0  0  0
   10.3253   -6.7056    2.5764 O   0  0  0  0  0  0  0  0  0  0  0  0
   10.2920   -6.6649    0.1789 C   0  0  1  0  0  0  0  0  0  0  0  0
    9.9879   -8.1693    0.2127 C   0  0  0  0  0  0  0  0  0  0  0  0
    9.1194   -5.9311   -0.3108 N   0  0  0  0  0  0  0  0  0  0  0  0
    7.8724   -5.8277    0.4045 C   0  0  0  0  0  0  0  0  0  0  0  0
    7.8573   -5.9080    1.6625 O   0  0  0  0  0  0  0  0  0  0  0  0
    6.5558   -5.7121   -0.3194 C   0  0  1  0  0  0  0  0  0  0  0  0
    6.6210   -4.7482   -1.5134 C   0  0  0  0  0  0  0  0  0  0  0  0
    6.1320   -7.0381   -0.7804 N   0  0  0  0  0  0  0  0  0  0  0  0
    4.8118   -7.5693   -0.5729 C   0  0  0  0  0  0  0  0  0  0  0  0
    4.1913   -8.0301   -1.5641 O   0  0  0  0  0  0  0  0  0  0  0  0
    4.1937   -7.7037    0.7997 C   0  0  1  0  0  0  0  0  0  0  0  0
    5.1401   -8.4555    1.7417 C   0  0  0  0  0  0  0  0  0  0  0  0
    3.8116   -6.4030    1.3643 N   0  0  0  0  0  0  0  0  0  0  0  0
    2.4802   -5.8836    1.2047 C   0  0  0  0  0  0  0  0  0  0  0  0
    1.7716   -5.6864    2.2239 O   0  0  0  0  0  0  0  0  0  0  0  0
    1.9019   -5.6506   -0.1705 C   0  0  1  0  0  0  0  0  0  0  0  0
    0.7094   -6.5841   -0.4145 C   0  0  0  0  0  0  0  0  0  0  0  0
    1.4894   -4.2579   -0.4086 N   0  0  0  0  0  0  0  0  0  0  0  0
    1.3267   -3.2524    0.6075 C   0  0  0  0  0  0  0  0  0  0  0  0
    2.2848   -2.9945    1.3877 O   0  0  0  0  0  0  0  0  0  0  0  0
    0.0729   -2.4060    0.6805 C   0  0  1  0  0  0  0  0  0  0  0  0
    0.2358   -1.0723   -0.0552 C   0  0  0  0  0  0  0  0  0  0  0  0
    0.2805   -1.2858   -1.8777 S   0  0  0  0  0  0  0  0  0  0  0  0
   -1.2219   -0.2972   -2.2553 C   0  0  0  0  0  0  0  0  0  0  0  0
   -1.0962   -3.1369    0.1770 N   0  0  0  0  0  0  0  0  0  0  0  0
   -2.4210   -2.9044    0.6708 C   0  0  0  0  0  0  0  0  0  0  0  0
   -2.6294   -2.0202    1.5502 O   0  0  0  0  0  0  0  0  0  0  0  0
   -3.5692   -3.7303    0.1629 C   0  0  1  0  0  0  0  0  0  0  0  0
   -3.8436   -3.3949   -1.3129 C   0  0  0  0  0  0  0  0  0  0  0  0
   -3.2707   -5.1517    0.3824 N   0  0  0  0  0  0  0  0  0  0  0  0
   -3.9567   -6.2312   -0.2598 C   0  0  0  0  0  0  0  0  0  0  0  0
   -4.0432   -6.2599   -1.5156 O   0  0  0  0  0  0  0  0  0  0  0  0
   -4.4514   -7.4179    0.5356 C   0  0  1  0  0  0  0  0  0  0  0  0
   -4.8794   -7.0732    1.9713 C   0  0  0  0  0  0  0  0  0  0  0  0
   -5.5231   -8.1292   -0.1730 N   0  0  0  0  0  0  0  0  0  0  0  0
   -6.8153   -7.6097   -0.5511 C   0  0  0  0  0  0  0  0  0  0  0  0
   -7.6491   -8.4005   -1.0747 O   0  0  0  0  0  0  0  0  0  0  0  0
   -7.2366   -6.1663   -0.3575 C   0  0  1  0  0  0  0  0  0  0  0  0
   -7.5429   -5.5321   -1.7223 C   0  0  0  0  0  0  0  0  0  0  0  0
   -8.3825   -6.1337    0.5667 N   0  0  0  0  0  0  0  0  0  0  0  0
   -9.3364   -5.0688    0.6378 C   0  0  0  0  0  0  0  0  0  0  0  0
   -9.2698   -4.2486    1.5945 O   0  0  0  0  0  0  0  0  0  0  0  0
  -10.4809   -4.9963   -0.3455 C   0  0  1  0  0  0  0  0  0  0  0  0
  -11.1545   -6.3658   -0.4711 C   0  0  0  0  0  0  0  0  0  0  0  0
  -11.4699   -3.9890    0.0581 N   0  0  0  0  0  0  0  0  0  0  0  0
  -11.3424   -2.6282   -0.3780 C   0  0  0  0  0  0  0  0  0  0  0  0
  -10.2116   -2.0716   -0.3731 O   0  0  0  0  0  0  0  0  0  0  0  0
  -12.5391   -1.8721   -0.8947 C   0  0  1  0  0  0  0  0  0  0  0  0
  -13.1643   -2.6062   -2.0848 C   0  0  0  0  0  0  0  0  0  0  0  0
  -13.5335   -1.6897    0.1697 N   0  0  0  0  0  0  0  0  0  0  0  0
  -14.5196   -0.6587    0.0608 C   0  0  0  0  0  0  0  0  0  0  0  0
  -15.6704   -0.9495   -0.3693 O   0  0  0  0  0  0  0  0  0  0  0  0
  -14.2615    0.7282    0.5856 C   0  0  1  0  0  0  0  0  0  0  0  0
  -14.5459    0.7872    2.0850 C   0  0  0  0  0  0  0  0  0  0  0  0
  -12.8846    1.1403    0.3274 N   0  0  0  0  0  0  0  0  0  0  0  0
  -12.5782    2.1958   -0.5852 C   0  0  0  0  0  0  0  0  0  0  0  0
  -12.2600    1.9111   -1.7689 O   0  0  0  0  0  0  0  0  0  0  0  0
  -12.6245    3.6454   -0.1530 C   0  0  1  0  0  0  0  0  0  0  0  0
  -14.0711    4.1284    0.0104 C   0  0  0  0  0  0  0  0  0  0  0  0
  -11.8889    3.8381    1.1026 N   0  0  0  0  0  0  0  0  0  0  0  0
  -11.4178    5.1107    1.5855 C   0  0  0  0  0  0  0  0  0  0  0  0
  -11.0068    5.1874    2.7728 O   0  0  0  0  0  0  0  0  0  0  0  0
  -11.3034    6.3277    0.6837 C   0  0  1  0  0  0  0  0  0  0  0  0
  -11.5079    7.6362    1.4568 C   0  0  0  0  0  0  0  0  0  0  0  0
  -10.0108    6.3356   -0.0036 N   0  0  0  0  0  0  0  0  0  0  0  0
   -8.7700    6.1997    0.6912 C   0  0  0  0  0  0  0  0  0  0  0  0
   -8.2807    7.2012    1.2848 O   0  0  0  0  0  0  0  0  0  0  0  0
   -8.0503    4.8742    0.6745 C   0  0  1  0  0  0  0  0  0  0  0  0
   -7.5002    4.5471   -0.7182 C   0  0  0  0  0  0  0  0  0  0  0  0
   -7.0399    4.7527    1.7429 N   0  0  0  0  0  0  0  0  0  0  0  0
   -5.9178    5.6255    1.9875 C   0  0  0  0  0  0  0  0  0  0  0  0
   -5.6155    5.8837    3.1884 O   0  0  0  0  0  0  0  0  0  0  0  0
   -4.8573   10.7520    1.2220 H   0  0  0  0  0  0  0  0  0  0  0  0
   -6.4978   10.4551    1.9181 H   0  0  0  0  0  0  0  0  0  0  0  0
   -6.1847   10.1096    0.1736 H   0  0  0  0  0  0  0  0  0  0  0  0
   -5.8240    7.8430   -0.3346 H   0  0  0  0  0  0  0  0  0  0  0  0
   -5.2623    5.6545   -0.0445 H   0  0  0  0  0  0  0  0  0  0  0  0
   -2.9948    6.7033    0.3937 H   0  0  0  0  0  0  0  0  0  0  0  0
   -3.3118    6.5406    2.1435 H   0  0  0  0  0  0  0  0  0  0  0  0
   -3.1613    5.0677   -1.2338 H   0  0  0  0  0  0  0  0  0  0  0  0
   -4.0924    3.5912   -0.8622 H   0  0  0  0  0  0  0  0  0  0  0  0
   -3.0463    1.4257   -1.1976 H   0  0  0  0  0  0  0  0  0  0  0  0
    0.9490    1.2878   -2.7764 H   0  0  0  0  0  0  0  0  0  0  0  0
   -0.6395    4.9906   -1.2897 H   0  0  0  0  0  0  0  0  0  0  0  0
    1.5326    4.9863   -2.2638 H   0  0  0  0  0  0  0  0  0  0  0  0
    1.7342    3.7517   -3.5332 H   0  0  0  0  0  0  0  0  0  0  0  0
    1.8877    4.5065    0.1320 H   0  0  0  0  0  0  0  0  0  0  0  0
    3.1661    3.4339    0.7905 H   0  0  0  0  0  0  0  0  0  0  0  0
    4.9156    4.8608   -0.3931 H   0  0  0  0  0  0  0  0  0  0  0  0
    3.8096    7.2680   -2.9293 H   0  0  0  0  0  0  0  0  0  0  0  0
    4.9590    5.9416   -2.5138 H   0  0  0  0  0  0  0  0  0  0  0  0
    3.4498    5.5464    2.0390 H   0  0  0  0  0  0  0  0  0  0  0  0
    5.7887    7.2392   -0.3209 H   0  0  0  0  0  0  0  0  0  0  0  0
    5.5244    9.3137    1.0701 H   0  0  0  0  0  0  0  0  0  0  0  0
    7.0044    8.8282    2.0024 H   0  0  0  0  0  0  0  0  0  0  0  0
    7.1162    9.1966    0.2410 H   0  0  0  0  0  0  0  0  0  0  0  0
    7.6376    5.7937    1.4529 H   0  0  0  0  0  0  0  0  0  0  0  0
    9.8831    8.2757    0.0088 H   0  0  0  0  0  0  0  0  0  0  0  0
   11.3019    7.1035    1.7513 H   0  0  0  0  0  0  0  0  0  0  0  0
   10.0277    5.8322    1.8470 H   0  0  0  0  0  0  0  0  0  0  0  0
    9.6229    7.5383    2.2434 H   0  0  0  0  0  0  0  0  0  0  0  0
   11.4075    7.3313   -1.3781 H   0  0  0  0  0  0  0  0  0  0  0  0
    9.6071    4.4334    0.0795 H   0  0  0  0  0  0  0  0  0  0  0  0
    9.5597    3.6681   -2.2402 H   0  0  0  0  0  0  0  0  0  0  0  0
   11.0937    2.7554   -2.0194 H   0  0  0  0  0  0  0  0  0  0  0  0
    9.6155    2.2709   -1.1082 H   0  0  0  0  0  0  0  0  0  0  0  0
   11.4216    3.9638    1.6247 H   0  0  0  0  0  0  0  0  0  0  0  0
   13.0797    2.2767   -0.9261 H   0  0  0  0  0  0  0  0  0  0  0  0
   14.2645    2.8414    1.2171 H   0  0  0  0  0  0  0  0  0  0  0  0
   14.1260    1.1116    1.7390 H   0  0  0  0  0  0  0  0  0  0  0  0
   15.1153    1.5611    0.2910 H   0  0  0  0  0  0  0  0  0  0  0  0
   11.9417   -0.3011   -0.2472 H   0  0  0  0  0  0  0  0  0  0  0  0
   13.5027   -2.5460   -1.4680 H   0  0  0  0  0  0  0  0  0  0  0  0
   15.8602   -2.2448   -2.0606 H   0  0  0  0  0  0  0  0  0  0  0  0
   15.7951   -3.3134   -0.6157 H   0  0  0  0  0  0  0  0  0  0  0  0
   16.2551   -1.5843   -0.4243 H   0  0  0  0  0  0  0  0  0  0  0  0
   14.2085   -1.5687    1.3399 H   0  0  0  0  0  0  0  0  0  0  0  0
   11.5995   -4.2596   -0.3088 H   0  0  0  0  0  0  0  0  0  0  0  0
   13.9193   -4.7419   -0.8171 H   0  0  0  0  0  0  0  0  0  0  0  0
   13.3390   -6.1596    0.0894 H   0  0  0  0  0  0  0  0  0  0  0  0
   14.3587   -4.9406    0.9293 H   0  0  0  0  0  0  0  0  0  0  0  0
   11.9311   -4.7849    2.6492 H   0  0  0  0  0  0  0  0  0  0  0  0
   11.1145   -6.5384   -0.5577 H   0  0  0  0  0  0  0  0  0  0  0  0
    9.1425   -8.3900    0.8992 H   0  0  0  0  0  0  0  0  0  0  0  0
    9.7231   -8.5291   -0.8022 H   0  0  0  0  0  0  0  0  0  0  0  0
   10.8854   -8.7251    0.5556 H   0  0  0  0  0  0  0  0  0  0  0  0
    9.1888   -5.5149   -1.2660 H   0  0  0  0  0  0  0  0  0  0  0  0
    5.8126   -5.2900    0.3849 H   0  0  0  0  0  0  0  0  0  0  0  0
    7.1821   -5.2027   -2.3583 H   0  0  0  0  0  0  0  0  0  0  0  0
    7.1076   -3.7921   -1.2170 H   0  0  0  0  0  0  0  0  0  0  0  0
    5.5916   -4.5283   -1.8674 H   0  0  0  0  0  0  0  0  0  0  0  0
    6.7394   -7.5190   -1.4851 H   0  0  0  0  0  0  0  0  0  0  0  0
    3.2796   -8.3313    0.7119 H   0  0  0  0  0  0  0  0  0  0  0  0
    6.1094   -7.9211    1.8561 H   0  0  0  0  0  0  0  0  0  0  0  0
    4.6746   -8.5597    2.7464 H   0  0  0  0  0  0  0  0  0  0  0  0
    5.3387   -9.4772    1.3479 H   0  0  0  0  0  0  0  0  0  0  0  0
    4.3554   -6.0450    2.1802 H   0  0  0  0  0  0  0  0  0  0  0  0
    2.6806   -5.8896   -0.9277 H   0  0  0  0  0  0  0  0  0  0  0  0
    0.3884   -6.5122   -1.4736 H   0  0  0  0  0  0  0  0  0  0  0  0
   -0.1458   -6.2942    0.2283 H   0  0  0  0  0  0  0  0  0  0  0  0
    0.9976   -7.6391   -0.2142 H   0  0  0  0  0  0  0  0  0  0  0  0
    1.1464   -4.0326   -1.3719 H   0  0  0  0  0  0  0  0  0  0  0  0
   -0.0812   -2.1752    1.7613 H   0  0  0  0  0  0  0  0  0  0  0  0
   -0.6008   -0.4080    0.2479 H   0  0  0  0  0  0  0  0  0  0  0  0
    1.1776   -0.5767    0.2643 H   0  0  0  0  0  0  0  0  0  0  0  0
   -2.0644   -0.7038   -1.6618 H   0  0  0  0  0  0  0  0  0  0  0  0
   -1.4588   -0.4198   -3.3342 H   0  0  0  0  0  0  0  0  0  0  0  0
   -1.0027   -3.7425   -0.6662 H   0  0  0  0  0  0  0  0  0  0  0  0
   -4.4858   -3.4742    0.7414 H   0  0  0  0  0  0  0  0  0  0  0  0
   -4.8103   -3.8389   -1.6287 H   0  0  0  0  0  0  0  0  0  0  0  0
   -3.0349   -3.7766   -1.9676 H   0  0  0  0  0  0  0  0  0  0  0  0
   -3.9276   -2.2931   -1.4505 H   0  0  0  0  0  0  0  0  0  0  0  0
   -2.7621   -5.3848    1.2634 H   0  0  0  0  0  0  0  0  0  0  0  0
   -3.5847   -8.1114    0.6224 H   0  0  0  0  0  0  0  0  0  0  0  0
   -3.9863   -6.8755    2.6004 H   0  0  0  0  0  0  0  0  0  0  0  0
   -5.4235   -7.9319    2.4238 H   0  0  0  0  0  0  0  0  0  0  0  0
   -5.5341   -6.1771    2.0112 H   0  0  0  0  0  0  0  0  0  0  0  0
   -5.3249   -9.1220   -0.4240 H   0  0  0  0  0  0  0  0  0  0  0  0
   -6.4294   -5.5620    0.0927 H   0  0  0  0  0  0  0  0  0  0  0  0
   -6.6579   -5.6066   -2.3883 H   0  0  0  0  0  0  0  0  0  0  0  0
   -8.3918   -6.0483   -2.2109 H   0  0  0  0  0  0  0  0  0  0  0  0
   -7.7746   -4.4500   -1.6013 H   0  0  0  0  0  0  0  0  0  0  0  0
   -8.2789   -6.6979    1.4417 H   0  0  0  0  0  0  0  0  0  0  0  0
  -10.0936   -4.7206   -1.3463 H   0  0  0  0  0  0  0  0  0  0  0  0
  -11.4931   -6.7244    0.5258 H   0  0  0  0  0  0  0  0  0  0  0  0
  -10.4509   -7.1099   -0.9053 H   0  0  0  0  0  0  0  0  0  0  0  0
  -12.0343   -6.2958   -1.1395 H   0  0  0  0  0  0  0  0  0  0  0  0
  -12.3955   -4.3093    0.4134 H   0  0  0  0  0  0  0  0  0  0  0  0
  -12.1984   -0.8798   -1.2498 H   0  0  0  0  0  0  0  0  0  0  0  0
  -12.4019   -2.7699   -2.8810 H   0  0  0  0  0  0  0  0  0  0  0  0
  -13.5689   -3.5920   -1.7711 H   0  0  0  0  0  0  0  0  0  0  0  0
  -13.9897   -1.9990   -2.5135 H   0  0  0  0  0  0  0  0  0  0  0  0
  -13.8132   -2.5314    0.7195 H   0  0  0  0  0  0  0  0  0  0  0  0
  -14.9651    1.4232    0.0696 H   0  0  0  0  0  0  0  0  0  0  0  0
  -14.2877    1.7930    2.4753 H   0  0  0  0  0  0  0  0  0  0  0  0
  -13.9481    0.0241    2.6291 H   0  0  0  0  0  0  0  0  0  0  0  0
  -15.6240    0.6002    2.2786 H   0  0  0  0  0  0  0  0  0  0  0  0
  -12.0946    0.6187    0.7667 H   0  0  0  0  0  0  0  0  0  0  0  0
  -12.1446    4.2356   -0.9637 H   0  0  0  0  0  0  0  0  0  0  0  0
  -14.6700    3.8690   -0.8900 H   0  0  0  0  0  0  0  0  0  0  0  0
  -14.1079    5.2248    0.1497 H   0  0  0  0  0  0  0  0  0  0  0  0
  -14.5454    3.6591    0.8980 H   0  0  0  0  0  0  0  0  0  0  0  0
  -11.7856    3.0259    1.7568 H   0  0  0  0  0  0  0  0  0  0  0  0
  -12.1049    6.3029   -0.0824 H   0  0  0  0  0  0  0  0  0  0  0  0
  -11.4374    8.4955    0.7613 H   0  0  0  0  0  0  0  0  0  0  0  0
  -10.7416    7.7627    2.2511 H   0  0  0  0  0  0  0  0  0  0  0  0
  -12.5159    7.6447    1.9234 H   0  0  0  0  0  0  0  0  0  0  0  0
   -9.9792    6.6307   -1.0121 H   0  0  0  0  0  0  0  0  0  0  0  0
   -8.8264    4.1032    0.8802 H   0  0  0  0  0  0  0  0  0  0  0  0
   -6.7228    3.7514   -0.6544 H   0  0  0  0  0  0  0  0  0  0  0  0
   -8.3227    4.1702   -1.3610 H   0  0  0  0  0  0  0  0  0  0  0  0
   -7.0876    5.4458   -1.2158 H   0  0  0  0  0  0  0  0  0  0  0  0
   -7.2905    4.1093    2.5280 H   0  0  0  0  0  0  0  0  0  0  0  0
  1  2  1  0
  2  3  2  0
  2  4  1  0
  4  5  1  0
  5  6  1  0
  6  7  1  0
  7  8  1  0
  8  9  1  0
  9 10  1  0
 10 11  2  0
 11 12  1  0
 12 13  2  0
 13 14  1  0
 13 15  1  0
 15 16  1  0
 16 17  1  0
 17 18  1  0
 18 19  1  0
 19 20  1  0
 19 21  2  0
 18 22  1  0
 22 23  1  0
 23 24  2  0
 23 25  1  0
 25 26  1  0
 25 27  1  0
 27 28  1  0
 28 29  2  0
 28 30  1  0
 30 31  1  0
 30 32  1  0
 32 33  1  0
 33 34  2  0
 33 35  1  0
 35 36  1  0
 35 37  1  0
 37 38  1  0
 38 39  2  0
 38 40  1  0
 40 41  1  0
 40 42  1  0
 42 43  1  0
 43 44  2  0
 43 45  1  0
 45 46  1  0
 45 47  1  0
 47 48  1  0
 48 49  2  0
 48 50  1  0
 50 51  1  0
 50 52  1  0
 52 53  1  0
 53 54  2  0
 53 55  1  0
 55 56  1  0
 55 57  1  0
 57 58  1  0
 58 59  2  0
 58 60  1  0
 60 61  1  0
 60 62  1  0
 62 63  1  0
 63 64  2  0
 63 65  1  0
 65 66  1  0
 65 67  1  0
 67 68  1  0
 68 69  2  0
 68 70  1  0
 70 71  1  0
 70 72  1  0
 72 73  1  0
 73 74  2  0
 73 75  1  0
 75 76  1  0
 76 77  1  0
 77 78  1  0
 75 79  1  0
 79 80  1  0
 80 81  2  0
 80 82  1  0
 82 83  1  0
 82 84  1  0
 84 85  1  0
 85 86  2  0
 85 87  1  0
 87 88  1  0
 87 89  1  0
 89 90  1  0
 90 91  2  0
 90 92  1  0
 92 93  1  0
 92 94  1  0
 94 95  1  0
 95 96  2  0
 95 97  1  0
 97 98  1  0
 97 99  1  0
 99100  1  0
100101  2  0
100102  1  0
102103  1  0
102104  1  0
104105  1  0
105106  2  0
105107  1  0
107108  1  0
107109  1  0
109110  1  0
110111  2  0
110112  1  0
112113  1  0
112114  1  0
114115  1  0
115116  2  0
115117  1  0
117118  1  0
117119  1  0
119120  1  0
120121  2  0
120122  1  0
122123  1  0
122124  1  0
124125  1  0
125126  2  0
125  5  1  0
 14  9  2  0
 78 11  1  0
  1127  1  0
  1128  1  0
  1129  1  0
  4130  1  0
  5131  1  6
  6132  1  0
  6133  1  0
  8134  1  0
  8135  1  0
 10136  1  0
 12137  1  0
 14138  1  0
 15139  1  0
 15140  1  0
 17141  1  0
 17142  1  0
 18143  1  6
 20144  1  0
 20145  1  0
 22146  1  0
 25147  1  6
 26148  1  0
 26149  1  0
 26150  1  0
 27151  1  0
 30152  1  1
 31153  1  0
 31154  1  0
 31155  1  0
 32156  1  0
 35157  1  1
 36158  1  0
 36159  1  0
 36160  1  0
 37161  1  0
 40162  1  6
 41163  1  0
 41164  1  0
 41165  1  0
 42166  1  0
 45167  1  6
 46168  1  0
 46169  1  0
 46170  1  0
 47171  1  0
 50172  1  6
 51173  1  0
 51174  1  0
 51175  1  0
 52176  1  0
 55177  1  6
 56178  1  0
 56179  1  0
 56180  1  0
 57181  1  0
 60182  1  1
 61183  1  0
 61184  1  0
 61185  1  0
 62186  1  0
 65187  1  6
 66188  1  0
 66189  1  0
 66190  1  0
 67191  1  0
 70192  1  6
 71193  1  0
 71194  1  0
 71195  1  0
 72196  1  0
 75197  1  1
 76198  1  0
 76199  1  0
 78200  1  0
 78201  1  0
 79202  1  0
 82203  1  1
 83204  1  0
 83205  1  0
 83206  1  0
 84207  1  0
 87208  1  1
 88209  1  0
 88210  1  0
 88211  1  0
 89212  1  0
 92213  1  1
 93214  1  0
 93215  1  0
 93216  1  0
 94217  1  0
 97218  1  6
 98219  1  0
 98220  1  0
 98221  1  0
 99222  1  0
102223  1  6
103224  1  0
103225  1  0
103226  1  0
104227  1  0
107228  1  6
108229  1  0
108230  1  0
108231  1  0
109232  1  0
112233  1  6
113234  1  0
113235  1  0
113236  1  0
114237  1  0
117238  1  6
118239  1  0
118240  1  0
118241  1  0
119242  1  0
122243  1  1
123244  1  0
123245  1  0
123246  1  0
124247  1  0
M  END
