
     RDKit          3D

177179  0  0  0  0  0  0  0  0999 V2000
   -1.3247   11.1453    0.1958 C   0  0  0  0  0  0  0  0  0  0  0  0
   -1.6810   10.4123   -1.0621 C   0  0  0  0  0  0  0  0  0  0  0  0
   -1.7295   11.0552   -2.1483 O   0  0  0  0  0  0  0  0  0  0  0  0
   -2.0250    9.0119   -1.0706 N   0  0  0  0  0  0  0  0  0  0  0  0
   -1.5690    8.0137   -0.0870 C   0  0  1  0  0  0  0  0  0  0  0  0
   -0.0415    7.8656   -0.1505 C   0  0  0  0  0  0  0  0  0  0  0  0
    0.5034    6.3662    0.7571 S   0  0  0  0  0  0  0  0  0  0  0  0
    1.1365    5.4344   -0.6932 C   0  0  0  0  0  0  0  0  0  0  0  0
    2.1301    4.4226   -0.2015 C   0  0  0  0  0  0  0  0  0  0  0  0
    3.3468    4.8668    0.3247 C   0  0  0  0  0  0  0  0  0  0  0  0
    4.2650    3.9634    0.8670 C   0  0  0  0  0  0  0  0  0  0  0  0
    3.9594    2.5936    0.8682 C   0  0  0  0  0  0  0  0  0  0  0  0
    2.7657    2.1280    0.2988 C   0  0  0  0  0  0  0  0  0  0  0  0
    1.8509    3.0493   -0.2396 C   0  0  0  0  0  0  0  0  0  0  0  0
    2.4735    0.6544    0.2508 C   0  0  0  0  0  0  0  0  0  0  0  0
    3.7825   -0.2149   -0.6867 S   0  0  0  0  0  0  0  0  0  0  0  0
    2.8693   -1.7938   -0.8140 C   0  0  0  0  0  0  0  0  0  0  0  0
    3.8422   -2.9531   -1.1120 C   0  0  2  0  0  0  0  0  0  0  0  0
    3.1224   -4.1283   -1.6238 N   0  0  0  0  0  0  0  0  0  0  0  0
    2.0850   -4.7862   -0.8709 C   0  0  0  0  0  0  0  0  0  0  0  0
    1.1069   -4.1174   -0.4369 O   0  0  0  0  0  0  0  0  0  0  0  0
    2.1176   -6.2703   -0.5966 C   0  0  1  0  0  0  0  0  0  0  0  0
    3.3960   -6.9574   -1.0863 C   0  0  0  0  0  0  0  0  0  0  0  0
    2.0013   -6.4771    0.8492 N   0  0  0  0  0  0  0  0  0  0  0  0
    0.8750   -7.0722    1.5201 C   0  0  0  0  0  0  0  0  0  0  0  0
    1.0396   -7.5336    2.6872 O   0  0  0  0  0  0  0  0  0  0  0  0
   -0.5009   -7.1587    0.8967 C   0  0  1  0  0  0  0  0  0  0  0  0
   -0.7761   -8.6137    0.4807 C   0  0  0  0  0  0  0  0  0  0  0  0
   -1.5149   -6.6499    1.8396 N   0  0  0  0  0  0  0  0  0  0  0  0
   -2.9149   -6.9845    1.7902 C   0  0  0  0  0  0  0  0  0  0  0  0
   -3.4310   -7.5438    2.8018 O   0  0  0  0  0  0  0  0  0  0  0  0
   -3.8309   -6.6059    0.6430 C   0  0  1  0  0  0  0  0  0  0  0  0
   -3.1153   -5.9844   -0.5621 C   0  0  0  0  0  0  0  0  0  0  0  0
   -4.5944   -7.7832    0.2094 N   0  0  0  0  0  0  0  0  0  0  0  0
   -5.9890   -7.7647   -0.1365 C   0  0  0  0  0  0  0  0  0  0  0  0
   -6.6653   -8.8174    0.0166 O   0  0  0  0  0  0  0  0  0  0  0  0
   -6.6382   -6.5630   -0.7831 C   0  0  1  0  0  0  0  0  0  0  0  0
   -6.6683   -6.7431   -2.3049 C   0  0  0  0  0  0  0  0  0  0  0  0
   -8.0102   -6.3935   -0.2930 N   0  0  0  0  0  0  0  0  0  0  0  0
   -8.6422   -5.1104   -0.1434 C   0  0  0  0  0  0  0  0  0  0  0  0
   -9.8741   -5.0097   -0.3960 O   0  0  0  0  0  0  0  0  0  0  0  0
   -7.8842   -3.8886    0.3168 C   0  0  1  0  0  0  0  0  0  0  0  0
   -7.4147   -3.0734   -0.9000 C   0  0  0  0  0  0  0  0  0  0  0  0
   -8.7238   -3.1073    1.2382 N   0  0  0  0  0  0  0  0  0  0  0  0
   -8.6856   -1.6802    1.3608 C   0  0  0  0  0  0  0  0  0  0  0  0
   -8.0232   -1.1666    2.3060 O   0  0  0  0  0  0  0  0  0  0  0  0
   -9.4042   -0.7815    0.3788 C   0  0  1  0  0  0  0  0  0  0  0  0
  -10.7009   -1.4341   -0.1214 C   0  0  0  0  0  0  0  0  0  0  0  0
   -9.7392    0.4877    1.0199 N   0  0  0  0  0  0  0  0  0  0  0  0
   -9.3718    1.7689    0.4886 C   0  0  0  0  0  0  0  0  0  0  0  0
  -10.1922    2.7199    0.5818 O   0  0  0  0  0  0  0  0  0  0  0  0
   -8.0388    2.0073   -0.1931 C   0  0  1  0  0  0  0  0  0  0  0  0
   -8.2636    2.1156   -1.7104 C   0  0  0  0  0  0  0  0  0  0  0  0
   -7.4468    3.2463    0.3390 N   0  0  0  0  0  0  0  0  0  0  0  0
   -6.3534    3.9444   -0.2789 C   0  0  0  0  0  0  0  0  0  0  0  0
   -5.4613    3.3056   -0.8965 O   0  0  0  0  0  0  0  0  0  0  0  0
   -6.2989    5.4565   -0.2294 C   0  0  1  0  0  0  0  0  0  0  0  0
   -7.6150    6.0263   -0.7867 C   0  0  0  0  0  0  0  0  0  0  0  0
   -6.0975    5.9131    1.1475 N   0  0  0  0  0  0  0  0  0  0  0  0
   -5.5800    7.2077    1.5240 C   0  0  0  0  0  0  0  0  0  0  0  0
   -5.9634    7.7014    2.6197 O   0  0  0  0  0  0  0  0  0  0  0  0
   -4.5878    7.9769    0.6854 C   0  0  1  0  0  0  0  0  0  0  0  0
   -5.2768    9.1387   -0.0335 C   0  0  0  0  0  0  0  0  0  0  0  0
   -3.5172    8.4994    1.5440 N   0  0  0  0  0  0  0  0  0  0  0  0
   -2.1067    8.3373    1.2965 C   0  0  0  0  0  0  0  0  0  0  0  0
   -1.3065    8.4880    2.2612 O   0  0  0  0  0  0  0  0  0  0  0  0
    4.6672   -3.3585    0.0968 C   0  0  0  0  0  0  0  0  0  0  0  0
    4.3509   -2.9467    1.2459 O   0  0  0  0  0  0  0  0  0  0  0  0
    5.7670   -4.2738   -0.0264 N   0  0  0  0  0  0  0  0  0  0  0  0
    6.6106   -4.3715   -1.2213 C   0  0  2  0  0  0  0  0  0  0  0  0
    7.3077   -5.7279   -1.2750 C   0  0  0  0  0  0  0  0  0  0  0  0
    7.6572   -3.2824   -1.2316 C   0  0  0  0  0  0  0  0  0  0  0  0
    8.1737   -2.9483   -2.3378 O   0  0  0  0  0  0  0  0  0  0  0  0
    8.1397   -2.6954   -0.0065 N   0  0  0  0  0  0  0  0  0  0  0  0
    9.5103   -2.1819    0.1038 C   0  0  2  0  0  0  0  0  0  0  0  0
   10.5104   -3.3441    0.0412 C   0  0  0  0  0  0  0  0  0  0  0  0
    9.7091   -1.4405    1.4124 C   0  0  0  0  0  0  0  0  0  0  0  0
    9.2175   -1.9212    2.4701 O   0  0  0  0  0  0  0  0  0  0  0  0
   10.4899   -0.2321    1.5033 N   0  0  0  0  0  0  0  0  0  0  0  0
   11.2735    0.3297    0.3961 C   0  0  2  0  0  0  0  0  0  0  0  0
   12.3703    1.2441    0.9408 C   0  0  0  0  0  0  0  0  0  0  0  0
   10.4088    1.1027   -0.5653 C   0  0  0  0  0  0  0  0  0  0  0  0
   10.8742    1.4048   -1.6977 O   0  0  0  0  0  0  0  0  0  0  0  0
    9.1297    1.6132   -0.1565 N   0  0  0  0  0  0  0  0  0  0  0  0
    8.7489    2.9914   -0.4590 C   0  0  2  0  0  0  0  0  0  0  0  0
    9.4684    3.8996    0.5092 C   0  0  0  0  0  0  0  0  0  0  0  0
    9.2020    3.8279    1.9050 N   0  0  0  0  0  0  0  0  0  0  0  0
   10.3311    4.7072    0.0735 O   0  0  0  0  0  0  0  0  0  0  0  0
    7.2068    3.1344   -0.4046 C   0  0  0  0  0  0  0  0  0  0  0  0
    6.6604    4.8620   -0.0809 S   0  0  0  0  0  0  0  0  0  0  0  0
    5.5894    4.4749    1.3560 C   0  0  0  0  0  0  0  0  0  0  0  0
   -2.1621   11.0725    0.9199 H   0  0  0  0  0  0  0  0  0  0  0  0
   -0.4006   10.7436    0.6506 H   0  0  0  0  0  0  0  0  0  0  0  0
   -1.1505   12.2278   -0.0171 H   0  0  0  0  0  0  0  0  0  0  0  0
   -2.5516    8.6549   -1.9022 H   0  0  0  0  0  0  0  0  0  0  0  0
   -1.9788    7.0261   -0.3802 H   0  0  0  0  0  0  0  0  0  0  0  0
    0.2660    7.8350   -1.2192 H   0  0  0  0  0  0  0  0  0  0  0  0
    0.4759    8.7318    0.3054 H   0  0  0  0  0  0  0  0  0  0  0  0
    0.2800    4.9445   -1.2037 H   0  0  0  0  0  0  0  0  0  0  0  0
    1.6444    6.1019   -1.4210 H   0  0  0  0  0  0  0  0  0  0  0  0
    3.5706    5.9310    0.3405 H   0  0  0  0  0  0  0  0  0  0  0  0
    4.6553    1.8883    1.3062 H   0  0  0  0  0  0  0  0  0  0  0  0
    0.9154    2.7025   -0.6694 H   0  0  0  0  0  0  0  0  0  0  0  0
    1.4821    0.4635   -0.2245 H   0  0  0  0  0  0  0  0  0  0  0  0
    2.4444    0.2573    1.2880 H   0  0  0  0  0  0  0  0  0  0  0  0
    2.3099   -1.9849    0.1267 H   0  0  0  0  0  0  0  0  0  0  0  0
    2.1377   -1.6987   -1.6450 H   0  0  0  0  0  0  0  0  0  0  0  0
    4.5345   -2.5919   -1.9011 H   0  0  0  0  0  0  0  0  0  0  0  0
    3.5583   -4.6278   -2.4336 H   0  0  0  0  0  0  0  0  0  0  0  0
    1.2760   -6.7460   -1.1376 H   0  0  0  0  0  0  0  0  0  0  0  0
    3.3856   -8.0244   -0.7812 H   0  0  0  0  0  0  0  0  0  0  0  0
    3.4634   -6.9099   -2.1956 H   0  0  0  0  0  0  0  0  0  0  0  0
    4.2860   -6.4704   -0.6300 H   0  0  0  0  0  0  0  0  0  0  0  0
    2.8206   -6.2197    1.4449 H   0  0  0  0  0  0  0  0  0  0  0  0
   -0.5368   -6.5240   -0.0026 H   0  0  0  0  0  0  0  0  0  0  0  0
   -0.0721   -8.9270   -0.3197 H   0  0  0  0  0  0  0  0  0  0  0  0
   -0.6559   -9.3012    1.3491 H   0  0  0  0  0  0  0  0  0  0  0  0
   -1.7981   -8.7324    0.0800 H   0  0  0  0  0  0  0  0  0  0  0  0
   -1.1895   -6.1669    2.7047 H   0  0  0  0  0  0  0  0  0  0  0  0
   -4.5228   -5.8454    1.0551 H   0  0  0  0  0  0  0  0  0  0  0  0
   -3.8558   -5.5818   -1.2814 H   0  0  0  0  0  0  0  0  0  0  0  0
   -2.5175   -6.7426   -1.1063 H   0  0  0  0  0  0  0  0  0  0  0  0
   -2.4687   -5.1442   -0.2370 H   0  0  0  0  0  0  0  0  0  0  0  0
   -4.1448   -8.7238    0.2947 H   0  0  0  0  0  0  0  0  0  0  0  0
   -6.0526   -5.6620   -0.5689 H   0  0  0  0  0  0  0  0  0  0  0  0
   -7.2358   -7.6590   -2.5772 H   0  0  0  0  0  0  0  0  0  0  0  0
   -7.1562   -5.8704   -2.7845 H   0  0  0  0  0  0  0  0  0  0  0  0
   -5.6338   -6.8213   -2.7001 H   0  0  0  0  0  0  0  0  0  0  0  0
   -8.6476   -7.2194   -0.3420 H   0  0  0  0  0  0  0  0  0  0  0  0
   -6.9889   -4.2134    0.8887 H   0  0  0  0  0  0  0  0  0  0  0  0
   -8.2719   -2.7445   -1.5213 H   0  0  0  0  0  0  0  0  0  0  0  0
   -6.7428   -3.6773   -1.5447 H   0  0  0  0  0  0  0  0  0  0  0  0
   -6.8328   -2.1855   -0.5657 H   0  0  0  0  0  0  0  0  0  0  0  0
   -9.0880   -3.6203    2.0679 H   0  0  0  0  0  0  0  0  0  0  0  0
   -8.7492   -0.6117   -0.4979 H   0  0  0  0  0  0  0  0  0  0  0  0
  -11.2339   -0.7289   -0.8005 H   0  0  0  0  0  0  0  0  0  0  0  0
  -10.4840   -2.3589   -0.6954 H   0  0  0  0  0  0  0  0  0  0  0  0
  -11.3656   -1.6878    0.7351 H   0  0  0  0  0  0  0  0  0  0  0  0
  -10.4559    0.4733    1.7830 H   0  0  0  0  0  0  0  0  0  0  0  0
   -7.3477    1.1685    0.0140 H   0  0  0  0  0  0  0  0  0  0  0  0
   -8.7854    3.0653   -1.9629 H   0  0  0  0  0  0  0  0  0  0  0  0
   -8.8661    1.2626   -2.0785 H   0  0  0  0  0  0  0  0  0  0  0  0
   -7.2941    2.0895   -2.2475 H   0  0  0  0  0  0  0  0  0  0  0  0
   -7.8889    3.6916    1.1788 H   0  0  0  0  0  0  0  0  0  0  0  0
   -5.4719    5.7958   -0.8851 H   0  0  0  0  0  0  0  0  0  0  0  0
   -7.7616    5.6936   -1.8408 H   0  0  0  0  0  0  0  0  0  0  0  0
   -8.4848    5.6971   -0.1780 H   0  0  0  0  0  0  0  0  0  0  0  0
   -7.5954    7.1343   -0.7757 H   0  0  0  0  0  0  0  0  0  0  0  0
   -6.5922    5.3952    1.9029 H   0  0  0  0  0  0  0  0  0  0  0  0
   -4.1562    7.3100   -0.0811 H   0  0  0  0  0  0  0  0  0  0  0  0
   -5.9889    8.7488   -0.7880 H   0  0  0  0  0  0  0  0  0  0  0  0
   -5.8251    9.7847    0.6907 H   0  0  0  0  0  0  0  0  0  0  0  0
   -4.5310    9.7595   -0.5705 H   0  0  0  0  0  0  0  0  0  0  0  0
   -3.7868    9.0108    2.4186 H   0  0  0  0  0  0  0  0  0  0  0  0
    6.1310   -4.6973    0.8597 H   0  0  0  0  0  0  0  0  0  0  0  0
    5.9934   -4.2852   -2.1367 H   0  0  0  0  0  0  0  0  0  0  0  0
    7.9491   -5.8689   -0.3761 H   0  0  0  0  0  0  0  0  0  0  0  0
    7.9475   -5.7916   -2.1856 H   0  0  0  0  0  0  0  0  0  0  0  0
    6.5585   -6.5426   -1.3197 H   0  0  0  0  0  0  0  0  0  0  0  0
    7.4993   -2.6475    0.8210 H   0  0  0  0  0  0  0  0  0  0  0  0
    9.7108   -1.5022   -0.7469 H   0  0  0  0  0  0  0  0  0  0  0  0
   11.5496   -2.9636    0.1508 H   0  0  0  0  0  0  0  0  0  0  0  0
   10.3124   -4.0686    0.8639 H   0  0  0  0  0  0  0  0  0  0  0  0
   10.4279   -3.8760   -0.9332 H   0  0  0  0  0  0  0  0  0  0  0  0
   10.5241    0.2399    2.4367 H   0  0  0  0  0  0  0  0  0  0  0  0
   11.7790   -0.5047   -0.1519 H   0  0  0  0  0  0  0  0  0  0  0  0
   13.0139    1.6129    0.1108 H   0  0  0  0  0  0  0  0  0  0  0  0
   11.9302    2.1198    1.4645 H   0  0  0  0  0  0  0  0  0  0  0  0
   13.0072    0.6859    1.6605 H   0  0  0  0  0  0  0  0  0  0  0  0
    8.6459    1.1521    0.6438 H   0  0  0  0  0  0  0  0  0  0  0  0
    9.0863    3.2516   -1.4904 H   0  0  0  0  0  0  0  0  0  0  0  0
    9.6884    4.4692    2.5717 H   0  0  0  0  0  0  0  0  0  0  0  0
    8.5149    3.1359    2.2754 H   0  0  0  0  0  0  0  0  0  0  0  0
    6.7887    2.4238    0.3393 H   0  0  0  0  0  0  0  0  0  0  0  0
    6.7932    2.8292   -1.3955 H   0  0  0  0  0  0  0  0  0  0  0  0
    5.4293    5.4098    1.9393 H   0  0  0  0  0  0  0  0  0  0  0  0
    6.0804    3.7509    2.0395 H   0  0  0  0  0  0  0  0  0  0  0  0
  1  2  1  0
  2  3  2  0
  2  4  1  0
  4  5  1  0
  5  6  1  0
  6  7  1  0
  7  8  1  0
  8  9  1  0
  9 10  1  0
 10 11  2  0
 11 12  1  0
 12 13  2  0
 13 14  1  0
 13 15  1  0
 15 16  1  0
 16 17  1  0
 17 18  1  0
 18 19  1  0
 19 20  1  0
 20 21  2  0
 20 22  1  0
 22 23  1  0
 22 24  1  0
 24 25  1  0
 25 26  2  0
 25 27  1  0
 27 28  1  0
 27 29  1  0
 29 30  1  0
 30 31  2  0
 30 32  1  0
 32 33  1  0
 32 34  1  0
 34 35  1  0
 35 36  2  0
 35 37  1  0
 37 38  1  0
 37 39  1  0
 39 40  1  0
 40 41  2  0
 40 42  1  0
 42 43  1  0
 42 44  1  0
 44 45  1  0
 45 46  2  0
 45 47  1  0
 47 48  1  0
 47 49  1  0
 49 50  1  0
 50 51  2  0
 50 52  1  0
 52 53  1  0
 52 54  1  0
 54 55  1  0
 55 56  2  0
 55 57  1  0
 57 58  1  0
 57 59  1  0
 59 60  1  0
 60 61  2  0
 60 62  1  0
 62 63  1  0
 62 64  1  0
 64 65  1  0
 65 66  2  0
 18 67  1  0
 67 68  2  0
 67 69  1  0
 69 70  1  0
 70 71  1  0
 70 72  1  0
 72 73  2  0
 72 74  1  0
 74 75  1  0
 75 76  1  0
 75 77  1  0
 77 78  2  0
 77 79  1  0
 79 80  1  0
 80 81  1  0
 80 82  1  0
 82 83  2  0
 82 84  1  0
 84 85  1  0
 85 86  1  0
 86 87  1  0
 86 88  2  0
 85 89  1  0
 89 90  1  0
 90 91  1  0
 65  5  1  0
 14  9  2  0
 91 11  1  0
  1 92  1  0
  1 93  1  0
  1 94  1  0
  4 95  1  0
  5 96  1  6
  6 97  1  0
  6 98  1  0
  8 99  1  0
  8100  1  0
 10101  1  0
 12102  1  0
 14103  1  0
 15104  1  0
 15105  1  0
 17106  1  0
 17107  1  0
 18108  1  6
 19109  1  0
 22110  1  6
 23111  1  0
 23112  1  0
 23113  1  0
 24114  1  0
 27115  1  6
 28116  1  0
 28117  1  0
 28118  1  0
 29119  1  0
 32120  1  1
 33121  1  0
 33122  1  0
 33123  1  0
 34124  1  0
 37125  1  6
 38126  1  0
 38127  1  0
 38128  1  0
 39129  1  0
 42130  1  1
 43131  1  0
 43132  1  0
 43133  1  0
 44134  1  0
 47135  1  6
 48136  1  0
 48137  1  0
 48138  1  0
 49139  1  0
 52140  1  6
 53141  1  0
 53142  1  0
 53143  1  0
 54144  1  0
 57145  1  6
 58146  1  0
 58147  1  0
 58148  1  0
 59149  1  0
 62150  1  6
 63151  1  0
 63152  1  0
 63153  1  0
 64154  1  0
 69155  1  0
 70156  1  6
 71157  1  0
 71158  1  0
 71159  1  0
 74160  1  0
 75161  1  6
 76162  1  0
 76163  1  0
 76164  1  0
 79165  1  0
 80166  1  6
 81167  1  0
 81168  1  0
 81169  1  0
 84170  1  0
 85171  1  6
 87172  1  0
 87173  1  0
 89174  1  0
 89175  1  0
 91176  1  0
 91177  1  0
M  END
