
     RDKit          3D

177179  0  0  0  0  0  0  0  0999 V2000
    0.0378   -9.6827   -1.0421 C   0  0  0  0  0  0  0  0  0  0  0  0
    0.2769   -8.2125   -0.9905 C   0  0  0  0  0  0  0  0  0  0  0  0
    0.4782   -7.5807   -2.0657 O   0  0  0  0  0  0  0  0  0  0  0  0
    0.2858   -7.5231    0.2653 N   0  0  0  0  0  0  0  0  0  0  0  0
    0.1814   -6.0615    0.3239 C   0  0  2  0  0  0  0  0  0  0  0  0
    0.4851   -5.5374    1.7341 C   0  0  0  0  0  0  0  0  0  0  0  0
    0.4997   -3.6983    1.7466 S   0  0  0  0  0  0  0  0  0  0  0  0
    2.1869   -3.4531    2.4075 C   0  0  0  0  0  0  0  0  0  0  0  0
    3.1854   -3.4121    1.2826 C   0  0  0  0  0  0  0  0  0  0  0  0
    3.8637   -4.5748    0.8870 C   0  0  0  0  0  0  0  0  0  0  0  0
    4.7891   -4.5418   -0.1695 C   0  0  0  0  0  0  0  0  0  0  0  0
    4.9987   -3.3355   -0.8629 C   0  0  0  0  0  0  0  0  0  0  0  0
    4.3880   -2.1491   -0.4311 C   0  0  0  0  0  0  0  0  0  0  0  0
    3.4673   -2.2016    0.6298 C   0  0  0  0  0  0  0  0  0  0  0  0
    4.8002   -0.8275   -1.0197 C   0  0  0  0  0  0  0  0  0  0  0  0
    3.6214   -0.2163   -2.2753 S   0  0  0  0  0  0  0  0  0  0  0  0
    2.6988    0.9652   -1.2068 C   0  0  0  0  0  0  0  0  0  0  0  0
    3.4779    2.2516   -0.8199 C   0  0  2  0  0  0  0  0  0  0  0  0
    2.5683    3.1388   -0.0614 N   0  0  0  0  0  0  0  0  0  0  0  0
    2.4670    4.5540   -0.2576 C   0  0  0  0  0  0  0  0  0  0  0  0
    3.5112    5.2487   -0.3901 O   0  0  0  0  0  0  0  0  0  0  0  0
    1.1245    5.2351   -0.2432 C   0  0  1  0  0  0  0  0  0  0  0  0
    0.1982    4.5933   -1.2842 C   0  0  0  0  0  0  0  0  0  0  0  0
    0.5165    5.1691    1.0903 N   0  0  0  0  0  0  0  0  0  0  0  0
   -0.6750    5.8925    1.4336 C   0  0  0  0  0  0  0  0  0  0  0  0
   -1.6635    5.2578    1.9022 O   0  0  0  0  0  0  0  0  0  0  0  0
   -0.7799    7.3940    1.2970 C   0  0  1  0  0  0  0  0  0  0  0  0
    0.4875    8.1003    1.7861 C   0  0  0  0  0  0  0  0  0  0  0  0
   -1.0847    7.7653   -0.0914 N   0  0  0  0  0  0  0  0  0  0  0  0
   -2.3823    8.1326   -0.5917 C   0  0  0  0  0  0  0  0  0  0  0  0
   -2.4795    8.5044   -1.7977 O   0  0  0  0  0  0  0  0  0  0  0  0
   -3.6081    8.1854    0.2864 C   0  0  1  0  0  0  0  0  0  0  0  0
   -3.6849    9.5415    0.9964 C   0  0  0  0  0  0  0  0  0  0  0  0
   -4.8285    7.9813   -0.5038 N   0  0  0  0  0  0  0  0  0  0  0  0
   -5.9555    7.3036    0.0605 C   0  0  0  0  0  0  0  0  0  0  0  0
   -6.9100    7.9818    0.5391 O   0  0  0  0  0  0  0  0  0  0  0  0
   -6.0246    5.7961    0.0783 C   0  0  1  0  0  0  0  0  0  0  0  0
   -5.7387    5.2772    1.4960 C   0  0  0  0  0  0  0  0  0  0  0  0
   -7.3499    5.3453   -0.3691 N   0  0  0  0  0  0  0  0  0  0  0  0
   -7.7428    3.9623   -0.3578 C   0  0  0  0  0  0  0  0  0  0  0  0
   -6.9040    3.0781   -0.6795 O   0  0  0  0  0  0  0  0  0  0  0  0
   -9.1042    3.5411    0.1577 C   0  0  1  0  0  0  0  0  0  0  0  0
  -10.1590    4.6459    0.0458 C   0  0  0  0  0  0  0  0  0  0  0  0
   -9.5853    2.3538   -0.5667 N   0  0  0  0  0  0  0  0  0  0  0  0
  -10.0968    1.1970    0.1196 C   0  0  0  0  0  0  0  0  0  0  0  0
  -10.3441    1.2496    1.3554 O   0  0  0  0  0  0  0  0  0  0  0  0
  -10.3274   -0.0965   -0.6173 C   0  0  1  0  0  0  0  0  0  0  0  0
  -11.3581    0.0707   -1.7413 C   0  0  0  0  0  0  0  0  0  0  0  0
   -9.0552   -0.5733   -1.1710 N   0  0  0  0  0  0  0  0  0  0  0  0
   -8.2478   -1.5586   -0.5186 C   0  0  0  0  0  0  0  0  0  0  0  0
   -7.0241   -1.3147   -0.3376 O   0  0  0  0  0  0  0  0  0  0  0  0
   -8.7873   -2.9315   -0.1896 C   0  0  1  0  0  0  0  0  0  0  0  0
   -8.6399   -3.8278   -1.4231 C   0  0  0  0  0  0  0  0  0  0  0  0
   -8.0934   -3.4681    0.9950 N   0  0  0  0  0  0  0  0  0  0  0  0
   -7.8645   -4.8608    1.2425 C   0  0  0  0  0  0  0  0  0  0  0  0
   -8.6969   -5.4903    1.9502 O   0  0  0  0  0  0  0  0  0  0  0  0
   -6.6267   -5.5891    0.7401 C   0  0  1  0  0  0  0  0  0  0  0  0
   -7.0357   -6.6615   -0.2854 C   0  0  0  0  0  0  0  0  0  0  0  0
   -5.6312   -4.6625    0.1698 N   0  0  0  0  0  0  0  0  0  0  0  0
   -4.3763   -5.0358   -0.4299 C   0  0  0  0  0  0  0  0  0  0  0  0
   -3.8385   -4.2210   -1.2286 O   0  0  0  0  0  0  0  0  0  0  0  0
   -3.6744   -6.3388   -0.1191 C   0  0  1  0  0  0  0  0  0  0  0  0
   -3.5196   -7.1997   -1.3775 C   0  0  0  0  0  0  0  0  0  0  0  0
   -2.3742   -6.1086    0.5288 N   0  0  0  0  0  0  0  0  0  0  0  0
   -1.1900   -5.6472   -0.1487 C   0  0  0  0  0  0  0  0  0  0  0  0
   -1.2853   -4.9080   -1.1655 O   0  0  0  0  0  0  0  0  0  0  0  0
    4.0404    2.9450   -2.0500 C   0  0  0  0  0  0  0  0  0  0  0  0
    3.2723    3.1299   -3.0367 O   0  0  0  0  0  0  0  0  0  0  0  0
    5.3902    3.4520   -2.1359 N   0  0  0  0  0  0  0  0  0  0  0  0
    6.4044    3.4727   -1.0679 C   0  0  2  0  0  0  0  0  0  0  0  0
    7.0246    4.8768   -1.0095 C   0  0  0  0  0  0  0  0  0  0  0  0
    7.4729    2.4367   -1.3499 C   0  0  0  0  0  0  0  0  0  0  0  0
    7.3265    1.6538   -2.3256 O   0  0  0  0  0  0  0  0  0  0  0  0
    8.6939    2.3512   -0.5860 N   0  0  0  0  0  0  0  0  0  0  0  0
    8.7844    2.5572    0.8640 C   0  0  2  0  0  0  0  0  0  0  0  0
    9.9846    3.4511    1.1804 C   0  0  0  0  0  0  0  0  0  0  0  0
    8.9088    1.2322    1.5764 C   0  0  0  0  0  0  0  0  0  0  0  0
    8.2593    1.0425    2.6468 O   0  0  0  0  0  0  0  0  0  0  0  0
    9.8297    0.2294    1.1166 N   0  0  0  0  0  0  0  0  0  0  0  0
    9.4040   -1.0911    0.6192 C   0  0  2  0  0  0  0  0  0  0  0  0
    8.2591   -0.9331   -0.3810 C   0  0  0  0  0  0  0  0  0  0  0  0
    9.0331   -2.0397    1.7423 C   0  0  0  0  0  0  0  0  0  0  0  0
    8.2637   -1.6473    2.6632 O   0  0  0  0  0  0  0  0  0  0  0  0
    9.5290   -3.3898    1.7811 N   0  0  0  0  0  0  0  0  0  0  0  0
    9.2783   -4.3843    0.7316 C   0  0  2  0  0  0  0  0  0  0  0  0
   10.0515   -4.0239   -0.5204 C   0  0  0  0  0  0  0  0  0  0  0  0
   11.4784   -3.9727   -0.4773 N   0  0  0  0  0  0  0  0  0  0  0  0
    9.4563   -3.7116   -1.5895 O   0  0  0  0  0  0  0  0  0  0  0  0
    7.7479   -4.5950    0.5577 C   0  0  0  0  0  0  0  0  0  0  0  0
    7.3067   -5.6078   -0.9077 S   0  0  0  0  0  0  0  0  0  0  0  0
    5.4994   -5.8085   -0.5747 C   0  0  0  0  0  0  0  0  0  0  0  0
    0.8591  -10.2112   -0.5213 H   0  0  0  0  0  0  0  0  0  0  0  0
   -0.9333   -9.9325   -0.5645 H   0  0  0  0  0  0  0  0  0  0  0  0
    0.0143  -10.0372   -2.0963 H   0  0  0  0  0  0  0  0  0  0  0  0
    0.2170   -8.0828    1.1478 H   0  0  0  0  0  0  0  0  0  0  0  0
    0.9514   -5.6284   -0.3508 H   0  0  0  0  0  0  0  0  0  0  0  0
   -0.2711   -5.8939    2.4680 H   0  0  0  0  0  0  0  0  0  0  0  0
    1.4600   -5.9506    2.0642 H   0  0  0  0  0  0  0  0  0  0  0  0
    2.4427   -4.2284    3.1525 H   0  0  0  0  0  0  0  0  0  0  0  0
    2.2005   -2.4861    2.9511 H   0  0  0  0  0  0  0  0  0  0  0  0
    3.6758   -5.5071    1.4049 H   0  0  0  0  0  0  0  0  0  0  0  0
    5.6924   -3.3162   -1.7017 H   0  0  0  0  0  0  0  0  0  0  0  0
    2.9894   -1.2957    0.9733 H   0  0  0  0  0  0  0  0  0  0  0  0
    4.9724   -0.1037   -0.2054 H   0  0  0  0  0  0  0  0  0  0  0  0
    5.7646   -0.9359   -1.5460 H   0  0  0  0  0  0  0  0  0  0  0  0
    1.7808    1.2519   -1.7616 H   0  0  0  0  0  0  0  0  0  0  0  0
    2.3658    0.4423   -0.2887 H   0  0  0  0  0  0  0  0  0  0  0  0
    4.2929    1.9536   -0.1392 H   0  0  0  0  0  0  0  0  0  0  0  0
    1.7991    2.6801    0.4679 H   0  0  0  0  0  0  0  0  0  0  0  0
    1.2795    6.2897   -0.5295 H   0  0  0  0  0  0  0  0  0  0  0  0
    0.6595    4.6458   -2.2949 H   0  0  0  0  0  0  0  0  0  0  0  0
   -0.7740    5.1288   -1.3145 H   0  0  0  0  0  0  0  0  0  0  0  0
    0.0002    3.5281   -1.0334 H   0  0  0  0  0  0  0  0  0  0  0  0
    0.7329    4.3405    1.6914 H   0  0  0  0  0  0  0  0  0  0  0  0
   -1.5848    7.7407    1.9729 H   0  0  0  0  0  0  0  0  0  0  0  0
    0.3519    9.2003    1.7094 H   0  0  0  0  0  0  0  0  0  0  0  0
    0.6822    7.8443    2.8513 H   0  0  0  0  0  0  0  0  0  0  0  0
    1.3731    7.8141    1.1807 H   0  0  0  0  0  0  0  0  0  0  0  0
   -0.2983    7.8102   -0.7725 H   0  0  0  0  0  0  0  0  0  0  0  0
   -3.5443    7.3858    1.0465 H   0  0  0  0  0  0  0  0  0  0  0  0
   -4.5991    9.5881    1.6308 H   0  0  0  0  0  0  0  0  0  0  0  0
   -2.7987    9.6961    1.6488 H   0  0  0  0  0  0  0  0  0  0  0  0
   -3.7228   10.3690    0.2512 H   0  0  0  0  0  0  0  0  0  0  0  0
   -5.0309    8.6669   -1.2668 H   0  0  0  0  0  0  0  0  0  0  0  0
   -5.2496    5.3918   -0.6100 H   0  0  0  0  0  0  0  0  0  0  0  0
   -5.6689    4.1688    1.4864 H   0  0  0  0  0  0  0  0  0  0  0  0
   -6.5507    5.5783    2.1913 H   0  0  0  0  0  0  0  0  0  0  0  0
   -4.7731    5.6669    1.8759 H   0  0  0  0  0  0  0  0  0  0  0  0
   -8.0343    6.0490   -0.7350 H   0  0  0  0  0  0  0  0  0  0  0  0
   -8.9804    3.3074    1.2362 H   0  0  0  0  0  0  0  0  0  0  0  0
  -10.2625    4.9846   -1.0084 H   0  0  0  0  0  0  0  0  0  0  0  0
  -11.1431    4.2670    0.4013 H   0  0  0  0  0  0  0  0  0  0  0  0
   -9.8793    5.5074    0.6887 H   0  0  0  0  0  0  0  0  0  0  0  0
   -9.4399    2.3068   -1.5962 H   0  0  0  0  0  0  0  0  0  0  0  0
  -10.7333   -0.8331    0.1009 H   0  0  0  0  0  0  0  0  0  0  0  0
  -10.9193    0.5885   -2.6194 H   0  0  0  0  0  0  0  0  0  0  0  0
  -11.7340   -0.9235   -2.0540 H   0  0  0  0  0  0  0  0  0  0  0  0
  -12.2245    0.6601   -1.3743 H   0  0  0  0  0  0  0  0  0  0  0  0
   -8.5825    0.0242   -1.8835 H   0  0  0  0  0  0  0  0  0  0  0  0
   -9.8666   -2.8723    0.0518 H   0  0  0  0  0  0  0  0  0  0  0  0
   -7.5705   -3.9250   -1.7091 H   0  0  0  0  0  0  0  0  0  0  0  0
   -9.1949   -3.3901   -2.2801 H   0  0  0  0  0  0  0  0  0  0  0  0
   -9.0696   -4.8320   -1.2277 H   0  0  0  0  0  0  0  0  0  0  0  0
   -8.0996   -2.8578    1.8460 H   0  0  0  0  0  0  0  0  0  0  0  0
   -6.1775   -6.0958    1.6195 H   0  0  0  0  0  0  0  0  0  0  0  0
   -6.3270   -7.5100   -0.2634 H   0  0  0  0  0  0  0  0  0  0  0  0
   -7.0608   -6.2432   -1.3105 H   0  0  0  0  0  0  0  0  0  0  0  0
   -8.0407   -7.0909   -0.0584 H   0  0  0  0  0  0  0  0  0  0  0  0
   -5.8311   -3.6362    0.1685 H   0  0  0  0  0  0  0  0  0  0  0  0
   -4.2887   -6.9239    0.5942 H   0  0  0  0  0  0  0  0  0  0  0  0
   -2.9518   -6.6681   -2.1687 H   0  0  0  0  0  0  0  0  0  0  0  0
   -2.9875   -8.1447   -1.1299 H   0  0  0  0  0  0  0  0  0  0  0  0
   -4.5179   -7.4595   -1.7851 H   0  0  0  0  0  0  0  0  0  0  0  0
   -2.2810   -6.4423    1.5151 H   0  0  0  0  0  0  0  0  0  0  0  0
    5.6887    3.8207   -3.0683 H   0  0  0  0  0  0  0  0  0  0  0  0
    5.9524    3.2750   -0.0782 H   0  0  0  0  0  0  0  0  0  0  0  0
    7.6501    5.0735   -1.9080 H   0  0  0  0  0  0  0  0  0  0  0  0
    6.2227    5.6446   -0.9644 H   0  0  0  0  0  0  0  0  0  0  0  0
    7.6483    4.9951   -0.0977 H   0  0  0  0  0  0  0  0  0  0  0  0
    9.5164    1.9129   -1.0558 H   0  0  0  0  0  0  0  0  0  0  0  0
    7.8761    3.0734    1.2372 H   0  0  0  0  0  0  0  0  0  0  0  0
    9.9654    3.7442    2.2520 H   0  0  0  0  0  0  0  0  0  0  0  0
    9.9545    4.3754    0.5681 H   0  0  0  0  0  0  0  0  0  0  0  0
   10.9371    2.9226    0.9705 H   0  0  0  0  0  0  0  0  0  0  0  0
   10.7830    0.5455    0.8206 H   0  0  0  0  0  0  0  0  0  0  0  0
   10.2610   -1.5229    0.0651 H   0  0  0  0  0  0  0  0  0  0  0  0
    8.6051   -0.3450   -1.2534 H   0  0  0  0  0  0  0  0  0  0  0  0
    7.3925   -0.4193    0.0917 H   0  0  0  0  0  0  0  0  0  0  0  0
    7.9184   -1.9105   -0.7702 H   0  0  0  0  0  0  0  0  0  0  0  0
    9.8240   -3.7516    2.7163 H   0  0  0  0  0  0  0  0  0  0  0  0
    9.6889   -5.3611    1.0694 H   0  0  0  0  0  0  0  0  0  0  0  0
   12.0137   -3.6672   -1.3165 H   0  0  0  0  0  0  0  0  0  0  0  0
   11.9851   -4.1732    0.4197 H   0  0  0  0  0  0  0  0  0  0  0  0
    7.3476   -5.0952    1.4676 H   0  0  0  0  0  0  0  0  0  0  0  0
    7.2528   -3.6087    0.4782 H   0  0  0  0  0  0  0  0  0  0  0  0
    5.0217   -6.1906   -1.5009 H   0  0  0  0  0  0  0  0  0  0  0  0
    5.3882   -6.5940    0.1980 H   0  0  0  0  0  0  0  0  0  0  0  0
  1  2  1  0
  2  3  2  0
  2  4  1  0
  4  5  1  0
  5  6  1  0
  6  7  1  0
  7  8  1  0
  8  9  1  0
  9 10  1  0
 10 11  2  0
 11 12  1  0
 12 13  2  0
 13 14  1  0
 13 15  1  0
 15 16  1  0
 16 17  1  0
 17 18  1  0
 18 19  1  0
 19 20  1  0
 20 21  2  0
 20 22  1  0
 22 23  1  0
 22 24  1  0
 24 25  1  0
 25 26  2  0
 25 27  1  0
 27 28  1  0
 27 29  1  0
 29 30  1  0
 30 31  2  0
 30 32  1  0
 32 33  1  0
 32 34  1  0
 34 35  1  0
 35 36  2  0
 35 37  1  0
 37 38  1  0
 37 39  1  0
 39 40  1  0
 40 41  2  0
 40 42  1  0
 42 43  1  0
 42 44  1  0
 44 45  1  0
 45 46  2  0
 45 47  1  0
 47 48  1  0
 47 49  1  0
 49 50  1  0
 50 51  2  0
 50 52  1  0
 52 53  1  0
 52 54  1  0
 54 55  1  0
 55 56  2  0
 55 57  1  0
 57 58  1  0
 57 59  1  0
 59 60  1  0
 60 61  2  0
 60 62  1  0
 62 63  1  0
 62 64  1  0
 64 65  1  0
 65 66  2  0
 18 67  1  0
 67 68  2  0
 67 69  1  0
 69 70  1  0
 70 71  1  0
 70 72  1  0
 72 73  2  0
 72 74  1  0
 74 75  1  0
 75 76  1  0
 75 77  1  0
 77 78  2  0
 77 79  1  0
 79 80  1  0
 80 81  1  0
 80 82  1  0
 82 83  2  0
 82 84  1  0
 84 85  1  0
 85 86  1  0
 86 87  1  0
 86 88  2  0
 85 89  1  0
 89 90  1  0
 90 91  1  0
 65  5  1  0
 14  9  2  0
 91 11  1  0
  1 92  1  0
  1 93  1  0
  1 94  1  0
  4 95  1  0
  5 96  1  6
  6 97  1  0
  6 98  1  0
  8 99  1  0
  8100  1  0
 10101  1  0
 12102  1  0
 14103  1  0
 15104  1  0
 15105  1  0
 17106  1  0
 17107  1  0
 18108  1  1
 19109  1  0
 22110  1  6
 23111  1  0
 23112  1  0
 23113  1  0
 24114  1  0
 27115  1  1
 28116  1  0
 28117  1  0
 28118  1  0
 29119  1  0
 32120  1  1
 33121  1  0
 33122  1  0
 33123  1  0
 34124  1  0
 37125  1  6
 38126  1  0
 38127  1  0
 38128  1  0
 39129  1  0
 42130  1  1
 43131  1  0
 43132  1  0
 43133  1  0
 44134  1  0
 47135  1  1
 48136  1  0
 48137  1  0
 48138  1  0
 49139  1  0
 52140  1  1
 53141  1  0
 53142  1  0
 53143  1  0
 54144  1  0
 57145  1  1
 58146  1  0
 58147  1  0
 58148  1  0
 59149  1  0
 62150  1  1
 63151  1  0
 63152  1  0
 63153  1  0
 64154  1  0
 69155  1  0
 70156  1  1
 71157  1  0
 71158  1  0
 71159  1  0
 74160  1  0
 75161  1  1
 76162  1  0
 76163  1  0
 76164  1  0
 79165  1  0
 80166  1  6
 81167  1  0
 81168  1  0
 81169  1  0
 84170  1  0
 85171  1  1
 87172  1  0
 87173  1  0
 89174  1  0
 89175  1  0
 91176  1  0
 91177  1  0
M  END
