
     RDKit          3D

187189  0  0  0  0  0  0  0  0999 V2000
    1.9343   10.0700   -2.1723 C   0  0  0  0  0  0  0  0  0  0  0  0
    0.8457    9.1959   -2.7239 C   0  0  0  0  0  0  0  0  0  0  0  0
   -0.0178    9.7103   -3.4816 O   0  0  0  0  0  0  0  0  0  0  0  0
    0.7438    7.8019   -2.3870 N   0  0  0  0  0  0  0  0  0  0  0  0
    1.5669    7.1554   -1.3506 C   0  0  1  0  0  0  0  0  0  0  0  0
    0.9326    5.8204   -0.8963 C   0  0  0  0  0  0  0  0  0  0  0  0
    0.8816    4.5715   -2.2398 S   0  0  0  0  0  0  0  0  0  0  0  0
   -0.9336    4.4992   -2.4515 C   0  0  0  0  0  0  0  0  0  0  0  0
   -1.5566    3.5123   -1.4991 C   0  0  0  0  0  0  0  0  0  0  0  0
   -2.5083    3.9380   -0.5575 C   0  0  0  0  0  0  0  0  0  0  0  0
   -3.1606    3.0126    0.2676 C   0  0  0  0  0  0  0  0  0  0  0  0
   -2.8708    1.6457    0.1356 C   0  0  0  0  0  0  0  0  0  0  0  0
   -1.9200    1.2031   -0.7983 C   0  0  0  0  0  0  0  0  0  0  0  0
   -1.2716    2.1417   -1.6164 C   0  0  0  0  0  0  0  0  0  0  0  0
   -1.6953   -0.2726   -0.9997 C   0  0  0  0  0  0  0  0  0  0  0  0
   -2.8781   -0.8667   -2.2524 S   0  0  0  0  0  0  0  0  0  0  0  0
   -2.4402   -2.6435   -2.1547 C   0  0  0  0  0  0  0  0  0  0  0  0
   -3.2565   -3.3910   -1.0867 C   0  0  2  0  0  0  0  0  0  0  0  0
   -2.8317   -4.7915   -1.0520 N   0  0  0  0  0  0  0  0  0  0  0  0
   -2.3223   -5.4233    0.1301 C   0  0  0  0  0  0  0  0  0  0  0  0
   -2.7596   -6.5638    0.4505 O   0  0  0  0  0  0  0  0  0  0  0  0
   -1.2484   -4.7778    0.9674 C   0  0  1  0  0  0  0  0  0  0  0  0
   -1.8077   -4.3633    2.3283 C   0  0  0  0  0  0  0  0  0  0  0  0
   -0.1416   -5.7153    1.1518 N   0  0  0  0  0  0  0  0  0  0  0  0
    1.1865   -5.4135    0.7200 C   0  0  0  0  0  0  0  0  0  0  0  0
    1.8949   -4.6280    1.4110 O   0  0  0  0  0  0  0  0  0  0  0  0
    1.7806   -6.1318   -0.4692 C   0  0  1  0  0  0  0  0  0  0  0  0
    0.8179   -6.0808   -1.6614 C   0  0  0  0  0  0  0  0  0  0  0  0
    3.0735   -5.5478   -0.8458 N   0  0  0  0  0  0  0  0  0  0  0  0
    3.9689   -6.2351   -1.7249 C   0  0  0  0  0  0  0  0  0  0  0  0
    3.8629   -6.0603   -2.9696 O   0  0  0  0  0  0  0  0  0  0  0  0
    5.0688   -7.1139   -1.1711 C   0  0  1  0  0  0  0  0  0  0  0  0
    4.5161   -8.4752   -0.7451 C   0  0  0  0  0  0  0  0  0  0  0  0
    6.1078   -7.3161   -2.1916 N   0  0  0  0  0  0  0  0  0  0  0  0
    7.4736   -6.8668   -2.1241 C   0  0  0  0  0  0  0  0  0  0  0  0
    8.1907   -6.9890   -3.1529 O   0  0  0  0  0  0  0  0  0  0  0  0
    8.1094   -6.3448   -0.8495 C   0  0  1  0  0  0  0  0  0  0  0  0
    8.4524   -7.5218    0.0694 C   0  0  0  0  0  0  0  0  0  0  0  0
    9.3395   -5.5980   -1.1609 N   0  0  0  0  0  0  0  0  0  0  0  0
    9.5339   -4.1871   -0.9494 C   0  0  0  0  0  0  0  0  0  0  0  0
   10.4197   -3.6033   -1.6330 O   0  0  0  0  0  0  0  0  0  0  0  0
    8.7526   -3.4025    0.0898 C   0  0  1  0  0  0  0  0  0  0  0  0
    8.9732   -3.9651    1.5007 C   0  0  0  0  0  0  0  0  0  0  0  0
    9.0890   -1.9695    0.0699 N   0  0  0  0  0  0  0  0  0  0  0  0
   10.3163   -1.4444    0.6044 C   0  0  0  0  0  0  0  0  0  0  0  0
   11.4048   -2.0412    0.3942 O   0  0  0  0  0  0  0  0  0  0  0  0
   10.2978   -0.1901    1.4410 C   0  0  1  0  0  0  0  0  0  0  0  0
   11.2166   -0.3372    2.6569 C   0  0  0  0  0  0  0  0  0  0  0  0
   10.7024    0.9621    0.6352 N   0  0  0  0  0  0  0  0  0  0  0  0
   10.2806    2.2830    0.9997 C   0  0  0  0  0  0  0  0  0  0  0  0
   11.0180    2.9725    1.7587 O   0  0  0  0  0  0  0  0  0  0  0  0
    9.0330    2.9076    0.4274 C   0  0  1  0  0  0  0  0  0  0  0  0
    8.1870    1.9297   -0.3916 C   0  0  0  0  0  0  0  0  0  0  0  0
    8.2197    3.4670    1.5101 N   0  0  0  0  0  0  0  0  0  0  0  0
    8.0993    4.8747    1.7449 C   0  0  0  0  0  0  0  0  0  0  0  0
    8.6145    5.3619    2.7846 O   0  0  0  0  0  0  0  0  0  0  0  0
    7.2692    5.7675    0.8509 C   0  0  1  0  0  0  0  0  0  0  0  0
    7.9142    5.9787   -0.5202 C   0  0  0  0  0  0  0  0  0  0  0  0
    5.9262    5.2124    0.6868 N   0  0  0  0  0  0  0  0  0  0  0  0
    4.7686    5.8665    1.2210 C   0  0  0  0  0  0  0  0  0  0  0  0
    4.2893    5.4688    2.3178 O   0  0  0  0  0  0  0  0  0  0  0  0
    4.0973    7.0029    0.4887 C   0  0  1  0  0  0  0  0  0  0  0  0
    4.7878    8.3352    0.7856 C   0  0  0  0  0  0  0  0  0  0  0  0
    4.1042    6.7583   -0.9604 N   0  0  0  0  0  0  0  0  0  0  0  0
    2.9824    6.9305   -1.8475 C   0  0  0  0  0  0  0  0  0  0  0  0
    3.1871    6.8651   -3.0917 O   0  0  0  0  0  0  0  0  0  0  0  0
   -4.7481   -3.3558   -1.3329 C   0  0  0  0  0  0  0  0  0  0  0  0
   -5.2258   -2.8582   -2.3955 O   0  0  0  0  0  0  0  0  0  0  0  0
   -5.6191   -4.0164   -0.4146 N   0  0  0  0  0  0  0  0  0  0  0  0
   -6.5297   -3.2908    0.4738 C   0  0  2  0  0  0  0  0  0  0  0  0
   -5.8098   -2.1348    1.1855 C   0  0  0  0  0  0  0  0  0  0  0  0
   -7.0773   -4.2573    1.4994 C   0  0  0  0  0  0  0  0  0  0  0  0
   -6.2596   -4.8345    2.2675 O   0  0  0  0  0  0  0  0  0  0  0  0
   -8.4736   -4.5883    1.6240 N   0  0  0  0  0  0  0  0  0  0  0  0
   -9.5971   -3.9706    0.9133 C   0  0  2  0  0  0  0  0  0  0  0  0
   -9.6600   -4.4552   -0.5487 C   0  0  0  0  0  0  0  0  0  0  0  0
   -9.6311   -2.4761    1.1269 C   0  0  0  0  0  0  0  0  0  0  0  0
   -9.5340   -2.0398    2.3062 O   0  0  0  0  0  0  0  0  0  0  0  0
   -9.8687   -1.5470    0.0536 N   0  0  0  0  0  0  0  0  0  0  0  0
  -10.9015   -0.5122    0.1982 C   0  0  2  0  0  0  0  0  0  0  0  0
  -12.2440   -1.0619   -0.2830 C   0  0  0  0  0  0  0  0  0  0  0  0
  -10.5376    0.7208   -0.5991 C   0  0  0  0  0  0  0  0  0  0  0  0
   -9.9790    0.5820   -1.7225 O   0  0  0  0  0  0  0  0  0  0  0  0
  -10.8814    2.0479   -0.1607 N   0  0  0  0  0  0  0  0  0  0  0  0
  -11.5514    2.3536    1.1049 C   0  0  2  0  0  0  0  0  0  0  0  0
  -12.2156    3.7342    1.0601 C   0  0  0  0  0  0  0  0  0  0  0  0
  -10.6228    2.2418    2.3014 C   0  0  0  0  0  0  0  0  0  0  0  0
  -11.1534    2.0689    3.4332 O   0  0  0  0  0  0  0  0  0  0  0  0
   -9.1821    2.2651    2.2236 N   0  0  0  0  0  0  0  0  0  0  0  0
   -8.3704    3.0175    1.2507 C   0  0  1  0  0  0  0  0  0  0  0  0
   -8.7430    4.4760    1.2757 C   0  0  0  0  0  0  0  0  0  0  0  0
   -9.0112    5.1762    0.0606 N   0  0  0  0  0  0  0  0  0  0  0  0
   -8.7976    5.0937    2.3761 O   0  0  0  0  0  0  0  0  0  0  0  0
   -6.8788    2.8532    1.5807 C   0  0  0  0  0  0  0  0  0  0  0  0
   -5.8254    3.5600    0.2597 S   0  0  0  0  0  0  0  0  0  0  0  0
   -4.2554    3.4563    1.1927 C   0  0  0  0  0  0  0  0  0  0  0  0
    1.8253   11.1092   -2.5525 H   0  0  0  0  0  0  0  0  0  0  0  0
    1.8809   10.0980   -1.0640 H   0  0  0  0  0  0  0  0  0  0  0  0
    2.9243    9.6879   -2.4892 H   0  0  0  0  0  0  0  0  0  0  0  0
   -0.0256    7.2676   -2.8454 H   0  0  0  0  0  0  0  0  0  0  0  0
    1.5741    7.8296   -0.4743 H   0  0  0  0  0  0  0  0  0  0  0  0
   -0.0758    6.0141   -0.4734 H   0  0  0  0  0  0  0  0  0  0  0  0
    1.5437    5.3893   -0.0766 H   0  0  0  0  0  0  0  0  0  0  0  0
   -1.3887    5.5033   -2.3340 H   0  0  0  0  0  0  0  0  0  0  0  0
   -1.1490    4.1729   -3.4922 H   0  0  0  0  0  0  0  0  0  0  0  0
   -2.7683    4.9853   -0.4956 H   0  0  0  0  0  0  0  0  0  0  0  0
   -3.4246    0.9189    0.7259 H   0  0  0  0  0  0  0  0  0  0  0  0
   -0.5659    1.8027   -2.3689 H   0  0  0  0  0  0  0  0  0  0  0  0
   -1.8529   -0.8222   -0.0467 H   0  0  0  0  0  0  0  0  0  0  0  0
   -0.6562   -0.4642   -1.3457 H   0  0  0  0  0  0  0  0  0  0  0  0
   -1.3574   -2.7608   -1.9510 H   0  0  0  0  0  0  0  0  0  0  0  0
   -2.6309   -3.1006   -3.1490 H   0  0  0  0  0  0  0  0  0  0  0  0
   -3.0679   -2.9140   -0.1080 H   0  0  0  0  0  0  0  0  0  0  0  0
   -3.1216   -5.4176   -1.8430 H   0  0  0  0  0  0  0  0  0  0  0  0
   -0.8785   -3.8648    0.4458 H   0  0  0  0  0  0  0  0  0  0  0  0
   -1.0169   -3.8591    2.9201 H   0  0  0  0  0  0  0  0  0  0  0  0
   -2.1641   -5.2494    2.8960 H   0  0  0  0  0  0  0  0  0  0  0  0
   -2.6566   -3.6536    2.2022 H   0  0  0  0  0  0  0  0  0  0  0  0
   -0.3263   -6.6622    1.5568 H   0  0  0  0  0  0  0  0  0  0  0  0
    1.9241   -7.1938   -0.1874 H   0  0  0  0  0  0  0  0  0  0  0  0
    1.2594   -6.6136   -2.5304 H   0  0  0  0  0  0  0  0  0  0  0  0
    0.6121   -5.0277   -1.9480 H   0  0  0  0  0  0  0  0  0  0  0  0
   -0.1373   -6.5888   -1.4124 H   0  0  0  0  0  0  0  0  0  0  0  0
    3.1465   -4.5092   -0.8657 H   0  0  0  0  0  0  0  0  0  0  0  0
    5.4763   -6.6223   -0.2682 H   0  0  0  0  0  0  0  0  0  0  0  0
    5.3514   -9.1574   -0.4811 H   0  0  0  0  0  0  0  0  0  0  0  0
    3.8799   -8.3633    0.1620 H   0  0  0  0  0  0  0  0  0  0  0  0
    3.9239   -8.9354   -1.5608 H   0  0  0  0  0  0  0  0  0  0  0  0
    5.8192   -7.7983   -3.0738 H   0  0  0  0  0  0  0  0  0  0  0  0
    7.3930   -5.6849   -0.3324 H   0  0  0  0  0  0  0  0  0  0  0  0
    9.1333   -8.2321   -0.4481 H   0  0  0  0  0  0  0  0  0  0  0  0
    8.9550   -7.1619    0.9881 H   0  0  0  0  0  0  0  0  0  0  0  0
    7.5299   -8.0633    0.3658 H   0  0  0  0  0  0  0  0  0  0  0  0
   10.1010   -6.1116   -1.6678 H   0  0  0  0  0  0  0  0  0  0  0  0
    7.6742   -3.4882   -0.1555 H   0  0  0  0  0  0  0  0  0  0  0  0
   10.0553   -4.0553    1.7252 H   0  0  0  0  0  0  0  0  0  0  0  0
    8.4985   -4.9590    1.6134 H   0  0  0  0  0  0  0  0  0  0  0  0
    8.5091   -3.2862    2.2520 H   0  0  0  0  0  0  0  0  0  0  0  0
    8.3139   -1.2969   -0.1077 H   0  0  0  0  0  0  0  0  0  0  0  0
    9.2647   -0.0291    1.8174 H   0  0  0  0  0  0  0  0  0  0  0  0
   12.2752   -0.4487    2.3388 H   0  0  0  0  0  0  0  0  0  0  0  0
   11.1357    0.5626    3.3067 H   0  0  0  0  0  0  0  0  0  0  0  0
   10.9207   -1.2244    3.2576 H   0  0  0  0  0  0  0  0  0  0  0  0
   11.6002    0.8902    0.1022 H   0  0  0  0  0  0  0  0  0  0  0  0
    9.3763    3.7122   -0.2533 H   0  0  0  0  0  0  0  0  0  0  0  0
    8.7920    1.4727   -1.2047 H   0  0  0  0  0  0  0  0  0  0  0  0
    7.3375    2.4723   -0.8518 H   0  0  0  0  0  0  0  0  0  0  0  0
    7.7775    1.1255    0.2513 H   0  0  0  0  0  0  0  0  0  0  0  0
    7.9090    2.8190    2.2659 H   0  0  0  0  0  0  0  0  0  0  0  0
    7.2019    6.7648    1.3381 H   0  0  0  0  0  0  0  0  0  0  0  0
    7.4295    6.8366   -1.0329 H   0  0  0  0  0  0  0  0  0  0  0  0
    8.9945    6.2089   -0.4106 H   0  0  0  0  0  0  0  0  0  0  0  0
    7.7881    5.0815   -1.1606 H   0  0  0  0  0  0  0  0  0  0  0  0
    5.8169    4.2338    0.3366 H   0  0  0  0  0  0  0  0  0  0  0  0
    3.0639    7.0698    0.8755 H   0  0  0  0  0  0  0  0  0  0  0  0
    4.1934    9.1670    0.3534 H   0  0  0  0  0  0  0  0  0  0  0  0
    5.8003    8.3676    0.3366 H   0  0  0  0  0  0  0  0  0  0  0  0
    4.8729    8.4925    1.8831 H   0  0  0  0  0  0  0  0  0  0  0  0
    5.0272    6.5727   -1.4134 H   0  0  0  0  0  0  0  0  0  0  0  0
   -5.8117   -5.0281   -0.6087 H   0  0  0  0  0  0  0  0  0  0  0  0
   -7.3309   -2.8443   -0.1427 H   0  0  0  0  0  0  0  0  0  0  0  0
   -4.9361   -2.5097    1.7629 H   0  0  0  0  0  0  0  0  0  0  0  0
   -6.5073   -1.6240    1.8825 H   0  0  0  0  0  0  0  0  0  0  0  0
   -5.4522   -1.3842    0.4460 H   0  0  0  0  0  0  0  0  0  0  0  0
   -8.7149   -5.3199    2.3326 H   0  0  0  0  0  0  0  0  0  0  0  0
  -10.5348   -4.3472    1.3848 H   0  0  0  0  0  0  0  0  0  0  0  0
   -9.9218   -5.5305   -0.5541 H   0  0  0  0  0  0  0  0  0  0  0  0
   -8.6934   -4.3456   -1.0727 H   0  0  0  0  0  0  0  0  0  0  0  0
  -10.4588   -3.9256   -1.1084 H   0  0  0  0  0  0  0  0  0  0  0  0
   -9.5866   -1.8215   -0.9109 H   0  0  0  0  0  0  0  0  0  0  0  0
  -10.9997   -0.2491    1.2698 H   0  0  0  0  0  0  0  0  0  0  0  0
  -12.5318   -1.9430    0.3348 H   0  0  0  0  0  0  0  0  0  0  0  0
  -12.1803   -1.3816   -1.3471 H   0  0  0  0  0  0  0  0  0  0  0  0
  -13.0367   -0.2892   -0.1917 H   0  0  0  0  0  0  0  0  0  0  0  0
  -10.7054    2.8306   -0.8319 H   0  0  0  0  0  0  0  0  0  0  0  0
  -12.3814    1.6244    1.2436 H   0  0  0  0  0  0  0  0  0  0  0  0
  -12.8083    3.9079    1.9851 H   0  0  0  0  0  0  0  0  0  0  0  0
  -11.4630    4.5366    0.9685 H   0  0  0  0  0  0  0  0  0  0  0  0
  -12.9049    3.7892    0.1932 H   0  0  0  0  0  0  0  0  0  0  0  0
   -8.6875    1.8358    3.0398 H   0  0  0  0  0  0  0  0  0  0  0  0
   -8.5216    2.5983    0.2449 H   0  0  0  0  0  0  0  0  0  0  0  0
   -8.9540    4.6883   -0.8604 H   0  0  0  0  0  0  0  0  0  0  0  0
   -9.2810    6.1884    0.0874 H   0  0  0  0  0  0  0  0  0  0  0  0
   -6.6326    1.7752    1.6729 H   0  0  0  0  0  0  0  0  0  0  0  0
   -6.6504    3.3508    2.5504 H   0  0  0  0  0  0  0  0  0  0  0  0
   -4.0238    4.4585    1.6085 H   0  0  0  0  0  0  0  0  0  0  0  0
   -4.3342    2.7521    2.0493 H   0  0  0  0  0  0  0  0  0  0  0  0
  1  2  1  0
  2  3  2  0
  2  4  1  0
  4  5  1  0
  5  6  1  0
  6  7  1  0
  7  8  1  0
  8  9  1  0
  9 10  1  0
 10 11  2  0
 11 12  1  0
 12 13  2  0
 13 14  1  0
 13 15  1  0
 15 16  1  0
 16 17  1  0
 17 18  1  0
 18 19  1  0
 19 20  1  0
 20 21  2  0
 20 22  1  0
 22 23  1  0
 22 24  1  0
 24 25  1  0
 25 26  2  0
 25 27  1  0
 27 28  1  0
 27 29  1  0
 29 30  1  0
 30 31  2  0
 30 32  1  0
 32 33  1  0
 32 34  1  0
 34 35  1  0
 35 36  2  0
 35 37  1  0
 37 38  1  0
 37 39  1  0
 39 40  1  0
 40 41  2  0
 40 42  1  0
 42 43  1  0
 42 44  1  0
 44 45  1  0
 45 46  2  0
 45 47  1  0
 47 48  1  0
 47 49  1  0
 49 50  1  0
 50 51  2  0
 50 52  1  0
 52 53  1  0
 52 54  1  0
 54 55  1  0
 55 56  2  0
 55 57  1  0
 57 58  1  0
 57 59  1  0
 59 60  1  0
 60 61  2  0
 60 62  1  0
 62 63  1  0
 62 64  1  0
 64 65  1  0
 65 66  2  0
 18 67  1  0
 67 68  2  0
 67 69  1  0
 69 70  1  0
 70 71  1  0
 70 72  1  0
 72 73  2  0
 72 74  1  0
 74 75  1  0
 75 76  1  0
 75 77  1  0
 77 78  2  0
 77 79  1  0
 79 80  1  0
 80 81  1  0
 80 82  1  0
 82 83  2  0
 82 84  1  0
 84 85  1  0
 85 86  1  0
 85 87  1  0
 87 88  2  0
 87 89  1  0
 89 90  1  0
 90 91  1  0
 91 92  1  0
 91 93  2  0
 90 94  1  0
 94 95  1  0
 95 96  1  0
 65  5  1  0
 14  9  2  0
 96 11  1  0
  1 97  1  0
  1 98  1  0
  1 99  1  0
  4100  1  0
  5101  1  1
  6102  1  0
  6103  1  0
  8104  1  0
  8105  1  0
 10106  1  0
 12107  1  0
 14108  1  0
 15109  1  0
 15110  1  0
 17111  1  0
 17112  1  0
 18113  1  1
 19114  1  0
 22115  1  6
 23116  1  0
 23117  1  0
 23118  1  0
 24119  1  0
 27120  1  1
 28121  1  0
 28122  1  0
 28123  1  0
 29124  1  0
 32125  1  1
 33126  1  0
 33127  1  0
 33128  1  0
 34129  1  0
 37130  1  1
 38131  1  0
 38132  1  0
 38133  1  0
 39134  1  0
 42135  1  6
 43136  1  0
 43137  1  0
 43138  1  0
 44139  1  0
 47140  1  1
 48141  1  0
 48142  1  0
 48143  1  0
 49144  1  0
 52145  1  6
 53146  1  0
 53147  1  0
 53148  1  0
 54149  1  0
 57150  1  1
 58151  1  0
 58152  1  0
 58153  1  0
 59154  1  0
 62155  1  1
 63156  1  0
 63157  1  0
 63158  1  0
 64159  1  0
 69160  1  0
 70161  1  6
 71162  1  0
 71163  1  0
 71164  1  0
 74165  1  0
 75166  1  1
 76167  1  0
 76168  1  0
 76169  1  0
 79170  1  0
 80171  1  1
 81172  1  0
 81173  1  0
 81174  1  0
 84175  1  0
 85176  1  1
 86177  1  0
 86178  1  0
 86179  1  0
 89180  1  0
 90181  1  6
 92182  1  0
 92183  1  0
 94184  1  0
 94185  1  0
 96186  1  0
 96187  1  0
M  END
