
     RDKit          3D

207209  0  0  0  0  0  0  0  0999 V2000
    2.0235   -6.3370   -5.2491 C   0  0  0  0  0  0  0  0  0  0  0  0
    1.6020   -5.8132   -3.9140 C   0  0  0  0  0  0  0  0  0  0  0  0
    0.3810   -5.8101   -3.6063 O   0  0  0  0  0  0  0  0  0  0  0  0
    2.5849   -5.2863   -2.9995 N   0  0  0  0  0  0  0  0  0  0  0  0
    2.7223   -5.7362   -1.6003 C   0  0  1  0  0  0  0  0  0  0  0  0
    1.3960   -5.6888   -0.8214 C   0  0  0  0  0  0  0  0  0  0  0  0
    0.7256   -3.9855   -0.7784 S   0  0  0  0  0  0  0  0  0  0  0  0
   -1.0297   -4.4674   -0.6109 C   0  0  0  0  0  0  0  0  0  0  0  0
   -1.7515   -3.5341    0.3169 C   0  0  0  0  0  0  0  0  0  0  0  0
   -2.3811   -4.0359    1.4682 C   0  0  0  0  0  0  0  0  0  0  0  0
   -3.1803   -3.2041    2.2648 C   0  0  0  0  0  0  0  0  0  0  0  0
   -3.3002   -1.8444    1.9359 C   0  0  0  0  0  0  0  0  0  0  0  0
   -2.6651   -1.3345    0.7967 C   0  0  0  0  0  0  0  0  0  0  0  0
   -1.8819   -2.1773   -0.0005 C   0  0  0  0  0  0  0  0  0  0  0  0
   -2.8237    0.1083    0.4308 C   0  0  0  0  0  0  0  0  0  0  0  0
   -1.5249    1.0918    1.2583 S   0  0  0  0  0  0  0  0  0  0  0  0
   -1.8581    2.6259    0.3155 C   0  0  0  0  0  0  0  0  0  0  0  0
   -1.0774    2.6365   -1.0246 C   0  0  2  0  0  0  0  0  0  0  0  0
    0.3230    3.0886   -0.8933 N   0  0  0  0  0  0  0  0  0  0  0  0
    0.8932    3.6780    0.2822 C   0  0  0  0  0  0  0  0  0  0  0  0
    1.1739    2.9354    1.2673 O   0  0  0  0  0  0  0  0  0  0  0  0
    1.3248    5.1202    0.2919 C   0  0  1  0  0  0  0  0  0  0  0  0
    0.6134    5.9443   -0.7910 C   0  0  0  0  0  0  0  0  0  0  0  0
    1.0325    5.7163    1.6034 N   0  0  0  0  0  0  0  0  0  0  0  0
    1.9663    6.3693    2.4873 C   0  0  0  0  0  0  0  0  0  0  0  0
    1.4984    6.9829    3.4830 O   0  0  0  0  0  0  0  0  0  0  0  0
    3.4743    6.3023    2.3376 C   0  0  1  0  0  0  0  0  0  0  0  0
    3.9902    4.8687    2.4818 C   0  0  0  0  0  0  0  0  0  0  0  0
    3.9286    6.9138    1.0842 N   0  0  0  0  0  0  0  0  0  0  0  0
    5.3087    7.2407    0.8799 C   0  0  0  0  0  0  0  0  0  0  0  0
    5.8765    8.0263    1.6851 O   0  0  0  0  0  0  0  0  0  0  0  0
    6.1113    6.5520   -0.2000 C   0  0  1  0  0  0  0  0  0  0  0  0
    5.3016    6.4055   -1.4958 C   0  0  0  0  0  0  0  0  0  0  0  0
    7.3358    7.3100   -0.4792 N   0  0  0  0  0  0  0  0  0  0  0  0
    8.6830    6.8957   -0.1778 C   0  0  0  0  0  0  0  0  0  0  0  0
    9.6283    7.4246   -0.8270 O   0  0  0  0  0  0  0  0  0  0  0  0
    9.0374    5.8441    0.8553 C   0  0  1  0  0  0  0  0  0  0  0  0
    8.3495    6.0823    2.2040 C   0  0  0  0  0  0  0  0  0  0  0  0
    8.7790    4.4888    0.3432 N   0  0  0  0  0  0  0  0  0  0  0  0
    9.4807    3.3598    0.8804 C   0  0  0  0  0  0  0  0  0  0  0  0
    9.5543    3.2010    2.1282 O   0  0  0  0  0  0  0  0  0  0  0  0
   10.1118    2.3454   -0.0488 C   0  0  1  0  0  0  0  0  0  0  0  0
   10.7984    3.0389   -1.2343 C   0  0  0  0  0  0  0  0  0  0  0  0
   11.1016    1.5214    0.6621 N   0  0  0  0  0  0  0  0  0  0  0  0
   11.5519    0.2372    0.1980 C   0  0  0  0  0  0  0  0  0  0  0  0
   12.6186   -0.2401    0.6775 O   0  0  0  0  0  0  0  0  0  0  0  0
   10.7491   -0.5708   -0.8019 C   0  0  1  0  0  0  0  0  0  0  0  0
   11.5414   -1.6901   -1.4971 C   0  0  0  0  0  0  0  0  0  0  0  0
    9.4991   -1.0751   -0.2116 N   0  0  0  0  0  0  0  0  0  0  0  0
    9.3372   -1.7057    1.0734 C   0  0  0  0  0  0  0  0  0  0  0  0
    8.2045   -1.6620    1.6238 O   0  0  0  0  0  0  0  0  0  0  0  0
   10.4251   -2.5335    1.7289 C   0  0  1  0  0  0  0  0  0  0  0  0
   10.5278   -2.1858    3.2208 C   0  0  0  0  0  0  0  0  0  0  0  0
   10.1688   -3.9793    1.5786 N   0  0  0  0  0  0  0  0  0  0  0  0
    9.4125   -4.5407    0.4932 C   0  0  0  0  0  0  0  0  0  0  0  0
    9.6886   -4.2166   -0.6934 O   0  0  0  0  0  0  0  0  0  0  0  0
    8.2519   -5.4723    0.7458 C   0  0  1  0  0  0  0  0  0  0  0  0
    8.1429   -5.8899    2.2153 C   0  0  0  0  0  0  0  0  0  0  0  0
    7.0119   -4.8124    0.3201 N   0  0  0  0  0  0  0  0  0  0  0  0
    6.0488   -5.4810   -0.5047 C   0  0  0  0  0  0  0  0  0  0  0  0
    5.7966   -5.0109   -1.6458 O   0  0  0  0  0  0  0  0  0  0  0  0
    5.3508   -6.7229   -0.0061 C   0  0  1  0  0  0  0  0  0  0  0  0
    4.4407   -6.4232    1.1990 C   0  0  0  0  0  0  0  0  0  0  0  0
    4.6257   -7.4214   -1.0773 N   0  0  0  0  0  0  0  0  0  0  0  0
    3.3046   -7.1250   -1.5739 C   0  0  0  0  0  0  0  0  0  0  0  0
    2.6208   -8.0715   -2.0568 O   0  0  0  0  0  0  0  0  0  0  0  0
   -1.7570    3.4464   -2.1012 C   0  0  0  0  0  0  0  0  0  0  0  0
   -1.3063    3.4044   -3.2753 O   0  0  0  0  0  0  0  0  0  0  0  0
   -2.9465    4.2010   -1.8283 N   0  0  0  0  0  0  0  0  0  0  0  0
   -4.2786    3.8522   -2.3476 C   0  0  2  0  0  0  0  0  0  0  0  0
   -4.2518    2.6690   -3.3355 C   0  0  0  0  0  0  0  0  0  0  0  0
   -4.8795    5.0733   -3.0009 C   0  0  0  0  0  0  0  0  0  0  0  0
   -4.2515    5.6020   -3.9553 O   0  0  0  0  0  0  0  0  0  0  0  0
   -6.0561    5.7378   -2.4957 N   0  0  0  0  0  0  0  0  0  0  0  0
   -7.2467    5.1348   -1.8770 C   0  0  2  0  0  0  0  0  0  0  0  0
   -6.9471    4.6175   -0.4650 C   0  0  0  0  0  0  0  0  0  0  0  0
   -7.8890    4.0910   -2.7794 C   0  0  0  0  0  0  0  0  0  0  0  0
   -7.3646    3.8586   -3.9049 O   0  0  0  0  0  0  0  0  0  0  0  0
   -9.0954    3.3585   -2.4428 N   0  0  0  0  0  0  0  0  0  0  0  0
  -10.1658    3.7190   -1.4951 C   0  0  2  0  0  0  0  0  0  0  0  0
  -10.5124    5.2176   -1.4885 C   0  0  0  0  0  0  0  0  0  0  0  0
   -9.9108    3.1344   -0.1301 C   0  0  0  0  0  0  0  0  0  0  0  0
  -10.0759    3.8360    0.9061 O   0  0  0  0  0  0  0  0  0  0  0  0
   -9.5387    1.7575   -0.0052 N   0  0  0  0  0  0  0  0  0  0  0  0
  -10.4793    0.6934    0.3799 C   0  0  2  0  0  0  0  0  0  0  0  0
  -11.7616    0.7557   -0.4575 C   0  0  0  0  0  0  0  0  0  0  0  0
  -10.8075    0.7485    1.8554 C   0  0  0  0  0  0  0  0  0  0  0  0
  -11.2431    1.8266    2.3514 O   0  0  0  0  0  0  0  0  0  0  0  0
  -10.6852   -0.3932    2.7206 N   0  0  0  0  0  0  0  0  0  0  0  0
  -10.6641   -1.7871    2.2500 C   0  0  2  0  0  0  0  0  0  0  0  0
  -11.1408   -2.7244    3.3647 C   0  0  0  0  0  0  0  0  0  0  0  0
   -9.2745   -2.1696    1.8095 C   0  0  0  0  0  0  0  0  0  0  0  0
   -8.2996   -1.9062    2.5642 O   0  0  0  0  0  0  0  0  0  0  0  0
   -9.0133   -2.7164    0.5064 N   0  0  0  0  0  0  0  0  0  0  0  0
   -9.5430   -3.9950    0.0087 C   0  0  2  0  0  0  0  0  0  0  0  0
  -10.9883   -3.8518   -0.4763 C   0  0  0  0  0  0  0  0  0  0  0  0
   -9.3563   -5.1069    1.0254 C   0  0  0  0  0  0  0  0  0  0  0  0
  -10.3680   -5.6739    1.5296 O   0  0  0  0  0  0  0  0  0  0  0  0
   -8.0512   -5.5321    1.4562 N   0  0  0  0  0  0  0  0  0  0  0  0
   -6.8167   -5.2345    0.7219 C   0  0  2  0  0  0  0  0  0  0  0  0
   -6.6229   -6.2447   -0.3768 C   0  0  0  0  0  0  0  0  0  0  0  0
   -6.6129   -5.8347   -1.7460 N   0  0  0  0  0  0  0  0  0  0  0  0
   -6.4687   -7.4603   -0.0915 O   0  0  0  0  0  0  0  0  0  0  0  0
   -5.6139   -5.2291    1.6693 C   0  0  0  0  0  0  0  0  0  0  0  0
   -5.7683   -3.8716    2.8897 S   0  0  0  0  0  0  0  0  0  0  0  0
   -4.0080   -3.7924    3.3762 C   0  0  0  0  0  0  0  0  0  0  0  0
    1.6965   -7.3977   -5.3387 H   0  0  0  0  0  0  0  0  0  0  0  0
    1.5433   -5.7305   -6.0437 H   0  0  0  0  0  0  0  0  0  0  0  0
    3.1262   -6.2796   -5.3652 H   0  0  0  0  0  0  0  0  0  0  0  0
    3.4355   -4.8521   -3.4267 H   0  0  0  0  0  0  0  0  0  0  0  0
    3.4021   -5.0246   -1.1024 H   0  0  0  0  0  0  0  0  0  0  0  0
    1.5781   -6.0042    0.2294 H   0  0  0  0  0  0  0  0  0  0  0  0
    0.6721   -6.4097   -1.2573 H   0  0  0  0  0  0  0  0  0  0  0  0
   -1.5030   -4.4339   -1.6172 H   0  0  0  0  0  0  0  0  0  0  0  0
   -1.1119   -5.5058   -0.2301 H   0  0  0  0  0  0  0  0  0  0  0  0
   -2.3038   -5.0901    1.7065 H   0  0  0  0  0  0  0  0  0  0  0  0
   -3.9088   -1.1923    2.5519 H   0  0  0  0  0  0  0  0  0  0  0  0
   -1.4073   -1.7835   -0.8946 H   0  0  0  0  0  0  0  0  0  0  0  0
   -2.7481    0.2196   -0.6708 H   0  0  0  0  0  0  0  0  0  0  0  0
   -3.8254    0.4808    0.7307 H   0  0  0  0  0  0  0  0  0  0  0  0
   -1.6153    3.5110    0.9395 H   0  0  0  0  0  0  0  0  0  0  0  0
   -2.9554    2.6723    0.1397 H   0  0  0  0  0  0  0  0  0  0  0  0
   -1.0526    1.5941   -1.4098 H   0  0  0  0  0  0  0  0  0  0  0  0
    0.9054    3.1042   -1.7620 H   0  0  0  0  0  0  0  0  0  0  0  0
    2.4041    5.1341    0.0640 H   0  0  0  0  0  0  0  0  0  0  0  0
   -0.4920    5.8704   -0.6783 H   0  0  0  0  0  0  0  0  0  0  0  0
    0.9043    5.5884   -1.8042 H   0  0  0  0  0  0  0  0  0  0  0  0
    0.9104    7.0120   -0.7027 H   0  0  0  0  0  0  0  0  0  0  0  0
    0.0286    5.7031    1.9037 H   0  0  0  0  0  0  0  0  0  0  0  0
    3.9090    6.8895    3.1769 H   0  0  0  0  0  0  0  0  0  0  0  0
    3.5886    4.4037    3.4110 H   0  0  0  0  0  0  0  0  0  0  0  0
    5.0948    4.8694    2.5524 H   0  0  0  0  0  0  0  0  0  0  0  0
    3.7090    4.2363    1.6184 H   0  0  0  0  0  0  0  0  0  0  0  0
    3.2558    7.1655    0.3291 H   0  0  0  0  0  0  0  0  0  0  0  0
    6.3574    5.5236    0.1486 H   0  0  0  0  0  0  0  0  0  0  0  0
    4.4548    5.7068   -1.3432 H   0  0  0  0  0  0  0  0  0  0  0  0
    5.9466    5.9901   -2.2970 H   0  0  0  0  0  0  0  0  0  0  0  0
    4.9105    7.3922   -1.8270 H   0  0  0  0  0  0  0  0  0  0  0  0
    7.2341    8.2145   -0.9945 H   0  0  0  0  0  0  0  0  0  0  0  0
   10.1297    5.9316    1.0438 H   0  0  0  0  0  0  0  0  0  0  0  0
    8.3451    7.1658    2.4492 H   0  0  0  0  0  0  0  0  0  0  0  0
    8.8996    5.5549    3.0105 H   0  0  0  0  0  0  0  0  0  0  0  0
    7.3095    5.6971    2.2137 H   0  0  0  0  0  0  0  0  0  0  0  0
    8.3769    4.3959   -0.6119 H   0  0  0  0  0  0  0  0  0  0  0  0
    9.2878    1.7029   -0.4217 H   0  0  0  0  0  0  0  0  0  0  0  0
   11.4009    2.3139   -1.8229 H   0  0  0  0  0  0  0  0  0  0  0  0
   10.0479    3.4827   -1.9210 H   0  0  0  0  0  0  0  0  0  0  0  0
   11.4819    3.8386   -0.8728 H   0  0  0  0  0  0  0  0  0  0  0  0
   11.6875    1.9862    1.3966 H   0  0  0  0  0  0  0  0  0  0  0  0
   10.4744    0.1179   -1.6265 H   0  0  0  0  0  0  0  0  0  0  0  0
   12.4325   -1.2605   -2.0060 H   0  0  0  0  0  0  0  0  0  0  0  0
   10.9016   -2.1636   -2.2723 H   0  0  0  0  0  0  0  0  0  0  0  0
   11.8810   -2.4794   -0.8062 H   0  0  0  0  0  0  0  0  0  0  0  0
    8.6175   -0.7959   -0.7034 H   0  0  0  0  0  0  0  0  0  0  0  0
   11.4076   -2.3171    1.2901 H   0  0  0  0  0  0  0  0  0  0  0  0
   11.4105   -2.6987    3.6647 H   0  0  0  0  0  0  0  0  0  0  0  0
    9.6157   -2.5054    3.7690 H   0  0  0  0  0  0  0  0  0  0  0  0
   10.6684   -1.0870    3.3486 H   0  0  0  0  0  0  0  0  0  0  0  0
   10.6307   -4.6392    2.2457 H   0  0  0  0  0  0  0  0  0  0  0  0
    8.4166   -6.3882    0.1419 H   0  0  0  0  0  0  0  0  0  0  0  0
    7.3287   -6.6291    2.3470 H   0  0  0  0  0  0  0  0  0  0  0  0
    7.9352   -5.0074    2.8625 H   0  0  0  0  0  0  0  0  0  0  0  0
    9.0812   -6.3783    2.5520 H   0  0  0  0  0  0  0  0  0  0  0  0
    6.9514   -3.7715    0.3818 H   0  0  0  0  0  0  0  0  0  0  0  0
    6.1401   -7.4100    0.3582 H   0  0  0  0  0  0  0  0  0  0  0  0
    3.7809   -7.2911    1.4092 H   0  0  0  0  0  0  0  0  0  0  0  0
    5.0540   -6.2347    2.1025 H   0  0  0  0  0  0  0  0  0  0  0  0
    3.8166   -5.5224    1.0389 H   0  0  0  0  0  0  0  0  0  0  0  0
    5.0342   -8.3343   -1.3831 H   0  0  0  0  0  0  0  0  0  0  0  0
   -2.8965    4.9323   -1.0786 H   0  0  0  0  0  0  0  0  0  0  0  0
   -4.8791    3.5190   -1.4901 H   0  0  0  0  0  0  0  0  0  0  0  0
   -3.7636    1.7877   -2.8599 H   0  0  0  0  0  0  0  0  0  0  0  0
   -3.7090    2.9353   -4.2677 H   0  0  0  0  0  0  0  0  0  0  0  0
   -5.2882    2.3686   -3.6034 H   0  0  0  0  0  0  0  0  0  0  0  0
   -6.1433    6.7464   -2.7630 H   0  0  0  0  0  0  0  0  0  0  0  0
   -7.9773    5.9586   -1.7702 H   0  0  0  0  0  0  0  0  0  0  0  0
   -6.0188    5.0829   -0.0608 H   0  0  0  0  0  0  0  0  0  0  0  0
   -7.7682    4.8967    0.2272 H   0  0  0  0  0  0  0  0  0  0  0  0
   -6.8415    3.5091   -0.4401 H   0  0  0  0  0  0  0  0  0  0  0  0
   -9.3321    2.5822   -3.0991 H   0  0  0  0  0  0  0  0  0  0  0  0
  -11.0868    3.2118   -1.8588 H   0  0  0  0  0  0  0  0  0  0  0  0
  -11.5727    5.3543   -1.1850 H   0  0  0  0  0  0  0  0  0  0  0  0
   -9.8951    5.7815   -0.7640 H   0  0  0  0  0  0  0  0  0  0  0  0
  -10.3885    5.6491   -2.5063 H   0  0  0  0  0  0  0  0  0  0  0  0
   -8.5896    1.4723   -0.3451 H   0  0  0  0  0  0  0  0  0  0  0  0
  -10.0005   -0.2718    0.1398 H   0  0  0  0  0  0  0  0  0  0  0  0
  -11.5102    0.7230   -1.5392 H   0  0  0  0  0  0  0  0  0  0  0  0
  -12.4107   -0.1151   -0.2220 H   0  0  0  0  0  0  0  0  0  0  0  0
  -12.3320    1.6895   -0.2452 H   0  0  0  0  0  0  0  0  0  0  0  0
  -10.7965   -0.2174    3.7432 H   0  0  0  0  0  0  0  0  0  0  0  0
  -11.3747   -1.8749    1.4076 H   0  0  0  0  0  0  0  0  0  0  0  0
  -12.1484   -2.4158    3.7115 H   0  0  0  0  0  0  0  0  0  0  0  0
  -11.2163   -3.7638    2.9875 H   0  0  0  0  0  0  0  0  0  0  0  0
  -10.4401   -2.7026    4.2264 H   0  0  0  0  0  0  0  0  0  0  0  0
   -8.2085   -2.3018   -0.0146 H   0  0  0  0  0  0  0  0  0  0  0  0
   -8.9561   -4.2758   -0.8939 H   0  0  0  0  0  0  0  0  0  0  0  0
  -11.7081   -3.7972    0.3657 H   0  0  0  0  0  0  0  0  0  0  0  0
  -11.2656   -4.7371   -1.0966 H   0  0  0  0  0  0  0  0  0  0  0  0
  -11.0956   -2.9416   -1.1068 H   0  0  0  0  0  0  0  0  0  0  0  0
   -8.0096   -6.2585    2.2072 H   0  0  0  0  0  0  0  0  0  0  0  0
   -6.8708   -4.2223    0.2783 H   0  0  0  0  0  0  0  0  0  0  0  0
   -6.4947   -6.5463   -2.5051 H   0  0  0  0  0  0  0  0  0  0  0  0
   -6.7937   -4.8421   -2.0072 H   0  0  0  0  0  0  0  0  0  0  0  0
   -4.7044   -5.0948    1.0534 H   0  0  0  0  0  0  0  0  0  0  0  0
   -5.5252   -6.1970    2.2097 H   0  0  0  0  0  0  0  0  0  0  0  0
   -3.9238   -3.1491    4.2809 H   0  0  0  0  0  0  0  0  0  0  0  0
   -3.6501   -4.8087    3.6632 H   0  0  0  0  0  0  0  0  0  0  0  0
  1  2  1  0
  2  3  2  0
  2  4  1  0
  4  5  1  0
  5  6  1  0
  6  7  1  0
  7  8  1  0
  8  9  1  0
  9 10  1  0
 10 11  2  0
 11 12  1  0
 12 13  2  0
 13 14  1  0
 13 15  1  0
 15 16  1  0
 16 17  1  0
 17 18  1  0
 18 19  1  0
 19 20  1  0
 20 21  2  0
 20 22  1  0
 22 23  1  0
 22 24  1  0
 24 25  1  0
 25 26  2  0
 25 27  1  0
 27 28  1  0
 27 29  1  0
 29 30  1  0
 30 31  2  0
 30 32  1  0
 32 33  1  0
 32 34  1  0
 34 35  1  0
 35 36  2  0
 35 37  1  0
 37 38  1  0
 37 39  1  0
 39 40  1  0
 40 41  2  0
 40 42  1  0
 42 43  1  0
 42 44  1  0
 44 45  1  0
 45 46  2  0
 45 47  1  0
 47 48  1  0
 47 49  1  0
 49 50  1  0
 50 51  2  0
 50 52  1  0
 52 53  1  0
 52 54  1  0
 54 55  1  0
 55 56  2  0
 55 57  1  0
 57 58  1  0
 57 59  1  0
 59 60  1  0
 60 61  2  0
 60 62  1  0
 62 63  1  0
 62 64  1  0
 64 65  1  0
 65 66  2  0
 18 67  1  0
 67 68  2  0
 67 69  1  0
 69 70  1  0
 70 71  1  0
 70 72  1  0
 72 73  2  0
 72 74  1  0
 74 75  1  0
 75 76  1  0
 75 77  1  0
 77 78  2  0
 77 79  1  0
 79 80  1  0
 80 81  1  0
 80 82  1  0
 82 83  2  0
 82 84  1  0
 84 85  1  0
 85 86  1  0
 85 87  1  0
 87 88  2  0
 87 89  1  0
 89 90  1  0
 90 91  1  0
 90 92  1  0
 92 93  2  0
 92 94  1  0
 94 95  1  0
 95 96  1  0
 95 97  1  0
 97 98  2  0
 97 99  1  0
 99100  1  0
100101  1  0
101102  1  0
101103  2  0
100104  1  0
104105  1  0
105106  1  0
 65  5  1  0
 14  9  2  0
106 11  1  0
  1107  1  0
  1108  1  0
  1109  1  0
  4110  1  0
  5111  1  1
  6112  1  0
  6113  1  0
  8114  1  0
  8115  1  0
 10116  1  0
 12117  1  0
 14118  1  0
 15119  1  0
 15120  1  0
 17121  1  0
 17122  1  0
 18123  1  6
 19124  1  0
 22125  1  6
 23126  1  0
 23127  1  0
 23128  1  0
 24129  1  0
 27130  1  1
 28131  1  0
 28132  1  0
 28133  1  0
 29134  1  0
 32135  1  1
 33136  1  0
 33137  1  0
 33138  1  0
 34139  1  0
 37140  1  1
 38141  1  0
 38142  1  0
 38143  1  0
 39144  1  0
 42145  1  6
 43146  1  0
 43147  1  0
 43148  1  0
 44149  1  0
 47150  1  6
 48151  1  0
 48152  1  0
 48153  1  0
 49154  1  0
 52155  1  6
 53156  1  0
 53157  1  0
 53158  1  0
 54159  1  0
 57160  1  6
 58161  1  0
 58162  1  0
 58163  1  0
 59164  1  0
 62165  1  1
 63166  1  0
 63167  1  0
 63168  1  0
 64169  1  0
 69170  1  0
 70171  1  1
 71172  1  0
 71173  1  0
 71174  1  0
 74175  1  0
 75176  1  1
 76177  1  0
 76178  1  0
 76179  1  0
 79180  1  0
 80181  1  6
 81182  1  0
 81183  1  0
 81184  1  0
 84185  1  0
 85186  1  1
 86187  1  0
 86188  1  0
 86189  1  0
 89190  1  0
 90191  1  6
 91192  1  0
 91193  1  0
 91194  1  0
 94195  1  0
 95196  1  6
 96197  1  0
 96198  1  0
 96199  1  0
 99200  1  0
100201  1  6
102202  1  0
102203  1  0
104204  1  0
104205  1  0
106206  1  0
106207  1  0
M  END
