
     RDKit          3D

197199  0  0  0  0  0  0  0  0999 V2000
   -0.5119    8.5774    1.1544 C   0  0  0  0  0  0  0  0  0  0  0  0
   -1.0477    7.6830    0.0874 C   0  0  0  0  0  0  0  0  0  0  0  0
   -0.8401    7.9788   -1.1212 O   0  0  0  0  0  0  0  0  0  0  0  0
   -1.8012    6.5112    0.4320 N   0  0  0  0  0  0  0  0  0  0  0  0
   -2.5881    5.7484   -0.5409 C   0  0  1  0  0  0  0  0  0  0  0  0
   -1.9214    4.3995   -0.8500 C   0  0  0  0  0  0  0  0  0  0  0  0
   -1.8847    3.2600    0.5909 S   0  0  0  0  0  0  0  0  0  0  0  0
   -0.1340    3.5127    1.0647 C   0  0  0  0  0  0  0  0  0  0  0  0
    0.8454    2.9168    0.0790 C   0  0  0  0  0  0  0  0  0  0  0  0
    2.0155    3.6237   -0.2491 C   0  0  0  0  0  0  0  0  0  0  0  0
    2.9816    3.0502   -1.0893 C   0  0  0  0  0  0  0  0  0  0  0  0
    2.7547    1.7760   -1.6399 C   0  0  0  0  0  0  0  0  0  0  0  0
    1.5570    1.0899   -1.3775 C   0  0  0  0  0  0  0  0  0  0  0  0
    0.6252    1.6479   -0.4855 C   0  0  0  0  0  0  0  0  0  0  0  0
    1.2510   -0.1931   -2.1155 C   0  0  0  0  0  0  0  0  0  0  0  0
    0.7573   -1.5607   -1.0057 S   0  0  0  0  0  0  0  0  0  0  0  0
    2.3062   -1.6129   -0.0326 C   0  0  0  0  0  0  0  0  0  0  0  0
    2.5518   -3.0313    0.5173 C   0  0  2  0  0  0  0  0  0  0  0  0
    1.5095   -3.3992    1.4816 N   0  0  0  0  0  0  0  0  0  0  0  0
    0.6885   -4.5763    1.3860 C   0  0  0  0  0  0  0  0  0  0  0  0
    0.2659   -5.1062    2.4494 O   0  0  0  0  0  0  0  0  0  0  0  0
    0.3118   -5.2009    0.0598 C   0  0  1  0  0  0  0  0  0  0  0  0
    1.1984   -6.4287   -0.1973 C   0  0  0  0  0  0  0  0  0  0  0  0
   -1.1132   -5.5562    0.0766 N   0  0  0  0  0  0  0  0  0  0  0  0
   -1.6747   -6.5555   -0.7777 C   0  0  0  0  0  0  0  0  0  0  0  0
   -1.7505   -6.3391   -2.0171 O   0  0  0  0  0  0  0  0  0  0  0  0
   -2.0574   -7.9057   -0.2196 C   0  0  1  0  0  0  0  0  0  0  0  0
   -2.4483   -7.8804    1.2669 C   0  0  0  0  0  0  0  0  0  0  0  0
   -3.1056   -8.5555   -1.0220 N   0  0  0  0  0  0  0  0  0  0  0  0
   -4.4705   -8.1250   -1.1863 C   0  0  0  0  0  0  0  0  0  0  0  0
   -5.2961   -8.9410   -1.6864 O   0  0  0  0  0  0  0  0  0  0  0  0
   -4.9545   -6.7238   -0.8625 C   0  0  1  0  0  0  0  0  0  0  0  0
   -5.3163   -5.9878   -2.1564 C   0  0  0  0  0  0  0  0  0  0  0  0
   -6.1283   -6.7791    0.0161 N   0  0  0  0  0  0  0  0  0  0  0  0
   -6.6442   -5.6008    0.6413 C   0  0  0  0  0  0  0  0  0  0  0  0
   -5.8968   -4.9264    1.4045 O   0  0  0  0  0  0  0  0  0  0  0  0
   -8.0551   -5.1484    0.3610 C   0  0  1  0  0  0  0  0  0  0  0  0
   -9.0621   -6.2750    0.6177 C   0  0  0  0  0  0  0  0  0  0  0  0
   -8.4063   -3.9812    1.1765 N   0  0  0  0  0  0  0  0  0  0  0  0
   -8.2864   -2.6437    0.6802 C   0  0  0  0  0  0  0  0  0  0  0  0
   -7.3407   -1.9203    1.0949 O   0  0  0  0  0  0  0  0  0  0  0  0
   -9.2985   -2.0489   -0.2682 C   0  0  1  0  0  0  0  0  0  0  0  0
   -8.8794   -2.2237   -1.7327 C   0  0  0  0  0  0  0  0  0  0  0  0
  -10.6206   -2.6451   -0.0510 N   0  0  0  0  0  0  0  0  0  0  0  0
  -11.7537   -1.9542    0.4968 C   0  0  0  0  0  0  0  0  0  0  0  0
  -12.6880   -2.6361    1.0049 O   0  0  0  0  0  0  0  0  0  0  0  0
  -11.8616   -0.4375    0.4846 C   0  0  1  0  0  0  0  0  0  0  0  0
  -13.3275    0.0129    0.5436 C   0  0  0  0  0  0  0  0  0  0  0  0
  -11.1286    0.1270    1.6246 N   0  0  0  0  0  0  0  0  0  0  0  0
  -10.5477    1.4461    1.6423 C   0  0  0  0  0  0  0  0  0  0  0  0
  -10.4454    2.0390    2.7579 O   0  0  0  0  0  0  0  0  0  0  0  0
  -10.0448    2.1394    0.3901 C   0  0  1  0  0  0  0  0  0  0  0  0
  -11.1651    2.8892   -0.3442 C   0  0  0  0  0  0  0  0  0  0  0  0
   -8.9140    3.0428    0.6826 N   0  0  0  0  0  0  0  0  0  0  0  0
   -9.0850    4.3902    1.1489 C   0  0  0  0  0  0  0  0  0  0  0  0
   -9.8549    4.6252    2.1211 O   0  0  0  0  0  0  0  0  0  0  0  0
   -8.3903    5.5364    0.4536 C   0  0  1  0  0  0  0  0  0  0  0  0
   -9.4556    6.5178   -0.0575 C   0  0  0  0  0  0  0  0  0  0  0  0
   -7.4728    6.2095    1.3823 N   0  0  0  0  0  0  0  0  0  0  0  0
   -6.3951    7.0777    0.9755 C   0  0  0  0  0  0  0  0  0  0  0  0
   -5.7483    7.6918    1.8753 O   0  0  0  0  0  0  0  0  0  0  0  0
   -5.9339    7.1964   -0.4683 C   0  0  1  0  0  0  0  0  0  0  0  0
   -5.1862    8.5111   -0.7196 C   0  0  0  0  0  0  0  0  0  0  0  0
   -5.0893    6.0640   -0.8500 N   0  0  0  0  0  0  0  0  0  0  0  0
   -4.0026    5.6054   -0.0446 C   0  0  0  0  0  0  0  0  0  0  0  0
   -4.2309    5.1290    1.1015 O   0  0  0  0  0  0  0  0  0  0  0  0
    3.8999   -3.1489    1.1841 C   0  0  0  0  0  0  0  0  0  0  0  0
    4.5330   -2.1139    1.5224 O   0  0  0  0  0  0  0  0  0  0  0  0
    4.4392   -4.4540    1.4590 N   0  0  0  0  0  0  0  0  0  0  0  0
    5.8702   -4.7968    1.4571 C   0  0  2  0  0  0  0  0  0  0  0  0
    6.6464   -4.0779    2.5656 C   0  0  0  0  0  0  0  0  0  0  0  0
    6.4810   -4.5994    0.0926 C   0  0  0  0  0  0  0  0  0  0  0  0
    6.5997   -5.5989   -0.6750 O   0  0  0  0  0  0  0  0  0  0  0  0
    6.8204   -3.2963   -0.4028 N   0  0  0  0  0  0  0  0  0  0  0  0
    8.1719   -2.8816   -0.7917 C   0  0  2  0  0  0  0  0  0  0  0  0
    8.8771   -3.9722   -1.6179 C   0  0  0  0  0  0  0  0  0  0  0  0
    8.9376   -2.4462    0.4337 C   0  0  0  0  0  0  0  0  0  0  0  0
    8.4159   -1.5996    1.2075 O   0  0  0  0  0  0  0  0  0  0  0  0
   10.2255   -2.9736    0.7682 N   0  0  0  0  0  0  0  0  0  0  0  0
   11.4297   -2.4851    0.0977 C   0  0  2  0  0  0  0  0  0  0  0  0
   12.4725   -3.6018    0.0505 C   0  0  0  0  0  0  0  0  0  0  0  0
   11.9836   -1.2883    0.8363 C   0  0  0  0  0  0  0  0  0  0  0  0
   12.1868   -1.3968    2.0777 O   0  0  0  0  0  0  0  0  0  0  0  0
   12.3805   -0.0651    0.1799 N   0  0  0  0  0  0  0  0  0  0  0  0
   11.8021    0.4732   -1.0560 C   0  0  2  0  0  0  0  0  0  0  0  0
   12.8464    1.3189   -1.7977 C   0  0  0  0  0  0  0  0  0  0  0  0
   10.5170    1.2096   -0.7480 C   0  0  0  0  0  0  0  0  0  0  0  0
    9.5101    0.5380   -0.3978 O   0  0  0  0  0  0  0  0  0  0  0  0
   10.3604    2.6229   -0.9494 N   0  0  0  0  0  0  0  0  0  0  0  0
   11.0230    3.6494   -0.1268 C   0  0  2  0  0  0  0  0  0  0  0  0
   11.0332    3.2949    1.3708 C   0  0  0  0  0  0  0  0  0  0  0  0
   10.4192    5.0166   -0.3716 C   0  0  0  0  0  0  0  0  0  0  0  0
   11.1858    5.9271   -0.7936 O   0  0  0  0  0  0  0  0  0  0  0  0
    9.0300    5.3495   -0.1453 N   0  0  0  0  0  0  0  0  0  0  0  0
    7.9822    4.4479    0.3472 C   0  0  1  0  0  0  0  0  0  0  0  0
    7.5980    4.8495    1.7488 C   0  0  0  0  0  0  0  0  0  0  0  0
    7.0754    6.1554    2.0276 N   0  0  0  0  0  0  0  0  0  0  0  0
    7.7409    4.0259    2.6953 O   0  0  0  0  0  0  0  0  0  0  0  0
    6.7746    4.4799   -0.5991 C   0  0  0  0  0  0  0  0  0  0  0  0
    5.5060    3.2682   -0.0790 S   0  0  0  0  0  0  0  0  0  0  0  0
    4.2804    3.7627   -1.3435 C   0  0  0  0  0  0  0  0  0  0  0  0
   -0.9507    9.5912    1.0466 H   0  0  0  0  0  0  0  0  0  0  0  0
   -0.7625    8.1848    2.1638 H   0  0  0  0  0  0  0  0  0  0  0  0
    0.5931    8.6482    1.0665 H   0  0  0  0  0  0  0  0  0  0  0  0
   -1.8165    6.2098    1.4328 H   0  0  0  0  0  0  0  0  0  0  0  0
   -2.6303    6.3089   -1.5004 H   0  0  0  0  0  0  0  0  0  0  0  0
   -0.8974    4.5789   -1.2462 H   0  0  0  0  0  0  0  0  0  0  0  0
   -2.4929    3.8939   -1.6619 H   0  0  0  0  0  0  0  0  0  0  0  0
    0.0530    4.6007    1.2027 H   0  0  0  0  0  0  0  0  0  0  0  0
    0.0167    3.0201    2.0475 H   0  0  0  0  0  0  0  0  0  0  0  0
    2.1951    4.6027    0.1838 H   0  0  0  0  0  0  0  0  0  0  0  0
    3.5055    1.3265   -2.2836 H   0  0  0  0  0  0  0  0  0  0  0  0
   -0.2795    1.1019   -0.2445 H   0  0  0  0  0  0  0  0  0  0  0  0
    2.1168   -0.5224   -2.7341 H   0  0  0  0  0  0  0  0  0  0  0  0
    0.4091   -0.0010   -2.8150 H   0  0  0  0  0  0  0  0  0  0  0  0
    2.2191   -0.8824    0.7962 H   0  0  0  0  0  0  0  0  0  0  0  0
    3.1668   -1.3285   -0.6741 H   0  0  0  0  0  0  0  0  0  0  0  0
    2.5626   -3.7289   -0.3501 H   0  0  0  0  0  0  0  0  0  0  0  0
    1.4578   -2.8522    2.3693 H   0  0  0  0  0  0  0  0  0  0  0  0
    0.4688   -4.4741   -0.7619 H   0  0  0  0  0  0  0  0  0  0  0  0
    1.0172   -6.8275   -1.2165 H   0  0  0  0  0  0  0  0  0  0  0  0
    0.9959   -7.2263    0.5497 H   0  0  0  0  0  0  0  0  0  0  0  0
    2.2745   -6.1555   -0.1370 H   0  0  0  0  0  0  0  0  0  0  0  0
   -1.7843   -4.8474    0.4602 H   0  0  0  0  0  0  0  0  0  0  0  0
   -1.1400   -8.5316   -0.2862 H   0  0  0  0  0  0  0  0  0  0  0  0
   -2.5118   -8.9189    1.6461 H   0  0  0  0  0  0  0  0  0  0  0  0
   -1.6835   -7.3474    1.8703 H   0  0  0  0  0  0  0  0  0  0  0  0
   -3.4318   -7.3990    1.4268 H   0  0  0  0  0  0  0  0  0  0  0  0
   -2.8564   -9.4863   -1.4313 H   0  0  0  0  0  0  0  0  0  0  0  0
   -4.1658   -6.1374   -0.3500 H   0  0  0  0  0  0  0  0  0  0  0  0
   -4.4467   -5.9691   -2.8506 H   0  0  0  0  0  0  0  0  0  0  0  0
   -6.1671   -6.4889   -2.6637 H   0  0  0  0  0  0  0  0  0  0  0  0
   -5.6083   -4.9441   -1.9366 H   0  0  0  0  0  0  0  0  0  0  0  0
   -6.6535   -7.6789    0.1380 H   0  0  0  0  0  0  0  0  0  0  0  0
   -8.1072   -4.8882   -0.7151 H   0  0  0  0  0  0  0  0  0  0  0  0
   -8.9199   -7.0947   -0.1139 H   0  0  0  0  0  0  0  0  0  0  0  0
   -8.9477   -6.6704    1.6483 H   0  0  0  0  0  0  0  0  0  0  0  0
  -10.0993   -5.8931    0.4929 H   0  0  0  0  0  0  0  0  0  0  0  0
   -8.4326   -4.1052    2.2149 H   0  0  0  0  0  0  0  0  0  0  0  0
   -9.3313   -0.9628   -0.0652 H   0  0  0  0  0  0  0  0  0  0  0  0
   -8.9609   -3.2823   -2.0536 H   0  0  0  0  0  0  0  0  0  0  0  0
   -7.8364   -1.8736   -1.8755 H   0  0  0  0  0  0  0  0  0  0  0  0
   -9.5453   -1.6160   -2.3793 H   0  0  0  0  0  0  0  0  0  0  0  0
  -10.7357   -3.6685   -0.2350 H   0  0  0  0  0  0  0  0  0  0  0  0
  -11.4341   -0.0749   -0.4709 H   0  0  0  0  0  0  0  0  0  0  0  0
  -13.3977    1.1180    0.6067 H   0  0  0  0  0  0  0  0  0  0  0  0
  -13.8331   -0.4038    1.4392 H   0  0  0  0  0  0  0  0  0  0  0  0
  -13.8675   -0.3220   -0.3660 H   0  0  0  0  0  0  0  0  0  0  0  0
  -11.2739   -0.3329    2.5544 H   0  0  0  0  0  0  0  0  0  0  0  0
   -9.6629    1.3597   -0.3022 H   0  0  0  0  0  0  0  0  0  0  0  0
  -10.7336    3.4724   -1.1827 H   0  0  0  0  0  0  0  0  0  0  0  0
  -11.6952    3.5813    0.3416 H   0  0  0  0  0  0  0  0  0  0  0  0
  -11.8962    2.1845   -0.7847 H   0  0  0  0  0  0  0  0  0  0  0  0
   -7.9571    2.7393    0.4018 H   0  0  0  0  0  0  0  0  0  0  0  0
   -7.8228    5.1296   -0.4130 H   0  0  0  0  0  0  0  0  0  0  0  0
  -10.1839    5.9804   -0.6975 H   0  0  0  0  0  0  0  0  0  0  0  0
   -9.0022    7.3314   -0.6559 H   0  0  0  0  0  0  0  0  0  0  0  0
  -10.0003    6.9811    0.7952 H   0  0  0  0  0  0  0  0  0  0  0  0
   -7.6187    6.0960    2.4070 H   0  0  0  0  0  0  0  0  0  0  0  0
   -6.8189    7.2088   -1.1355 H   0  0  0  0  0  0  0  0  0  0  0  0
   -4.9536    8.6135   -1.8007 H   0  0  0  0  0  0  0  0  0  0  0  0
   -4.2326    8.5355   -0.1505 H   0  0  0  0  0  0  0  0  0  0  0  0
   -5.8124    9.3739   -0.4110 H   0  0  0  0  0  0  0  0  0  0  0  0
   -5.1336    5.7281   -1.8452 H   0  0  0  0  0  0  0  0  0  0  0  0
    3.7636   -5.2392    1.5780 H   0  0  0  0  0  0  0  0  0  0  0  0
    5.9464   -5.8828    1.6914 H   0  0  0  0  0  0  0  0  0  0  0  0
    6.6263   -2.9803    2.4365 H   0  0  0  0  0  0  0  0  0  0  0  0
    6.2059   -4.3243    3.5546 H   0  0  0  0  0  0  0  0  0  0  0  0
    7.7047   -4.4145    2.5631 H   0  0  0  0  0  0  0  0  0  0  0  0
    6.0817   -2.5542   -0.3967 H   0  0  0  0  0  0  0  0  0  0  0  0
    8.0831   -1.9891   -1.4512 H   0  0  0  0  0  0  0  0  0  0  0  0
    9.7941   -3.5808   -2.1016 H   0  0  0  0  0  0  0  0  0  0  0  0
    8.2046   -4.3198   -2.4324 H   0  0  0  0  0  0  0  0  0  0  0  0
    9.1475   -4.8367   -0.9746 H   0  0  0  0  0  0  0  0  0  0  0  0
   10.3309   -3.3787    1.7271 H   0  0  0  0  0  0  0  0  0  0  0  0
   11.1869   -2.2365   -0.9483 H   0  0  0  0  0  0  0  0  0  0  0  0
   12.0626   -4.4854   -0.4880 H   0  0  0  0  0  0  0  0  0  0  0  0
   12.7589   -3.9204    1.0781 H   0  0  0  0  0  0  0  0  0  0  0  0
   13.3838   -3.2551   -0.4844 H   0  0  0  0  0  0  0  0  0  0  0  0
   12.9640    0.5870    0.7531 H   0  0  0  0  0  0  0  0  0  0  0  0
   11.5539   -0.3398   -1.7633 H   0  0  0  0  0  0  0  0  0  0  0  0
   13.6326    0.6528   -2.2119 H   0  0  0  0  0  0  0  0  0  0  0  0
   13.3488    2.0315   -1.1153 H   0  0  0  0  0  0  0  0  0  0  0  0
   12.3828    1.8695   -2.6404 H   0  0  0  0  0  0  0  0  0  0  0  0
    9.5860    2.9167   -1.5855 H   0  0  0  0  0  0  0  0  0  0  0  0
   12.0852    3.7041   -0.4377 H   0  0  0  0  0  0  0  0  0  0  0  0
   11.4869    4.1227    1.9573 H   0  0  0  0  0  0  0  0  0  0  0  0
   11.6420    2.3866    1.5452 H   0  0  0  0  0  0  0  0  0  0  0  0
   10.0203    3.0922    1.7659 H   0  0  0  0  0  0  0  0  0  0  0  0
    8.7504    6.3389   -0.3352 H   0  0  0  0  0  0  0  0  0  0  0  0
    8.3365    3.4045    0.3627 H   0  0  0  0  0  0  0  0  0  0  0  0
    6.8535    6.8199    1.2573 H   0  0  0  0  0  0  0  0  0  0  0  0
    6.8834    6.4411    3.0144 H   0  0  0  0  0  0  0  0  0  0  0  0
    6.3359    5.5005   -0.6374 H   0  0  0  0  0  0  0  0  0  0  0  0
    7.1128    4.2183   -1.6241 H   0  0  0  0  0  0  0  0  0  0  0  0
    4.6777    3.5015   -2.3498 H   0  0  0  0  0  0  0  0  0  0  0  0
    4.1211    4.8645   -1.3174 H   0  0  0  0  0  0  0  0  0  0  0  0
  1  2  1  0
  2  3  2  0
  2  4  1  0
  4  5  1  0
  5  6  1  0
  6  7  1  0
  7  8  1  0
  8  9  1  0
  9 10  1  0
 10 11  2  0
 11 12  1  0
 12 13  2  0
 13 14  1  0
 13 15  1  0
 15 16  1  0
 16 17  1  0
 17 18  1  0
 18 19  1  0
 19 20  1  0
 20 21  2  0
 20 22  1  0
 22 23  1  0
 22 24  1  0
 24 25  1  0
 25 26  2  0
 25 27  1  0
 27 28  1  0
 27 29  1  0
 29 30  1  0
 30 31  2  0
 30 32  1  0
 32 33  1  0
 32 34  1  0
 34 35  1  0
 35 36  2  0
 35 37  1  0
 37 38  1  0
 37 39  1  0
 39 40  1  0
 40 41  2  0
 40 42  1  0
 42 43  1  0
 42 44  1  0
 44 45  1  0
 45 46  2  0
 45 47  1  0
 47 48  1  0
 47 49  1  0
 49 50  1  0
 50 51  2  0
 50 52  1  0
 52 53  1  0
 52 54  1  0
 54 55  1  0
 55 56  2  0
 55 57  1  0
 57 58  1  0
 57 59  1  0
 59 60  1  0
 60 61  2  0
 60 62  1  0
 62 63  1  0
 62 64  1  0
 64 65  1  0
 65 66  2  0
 18 67  1  0
 67 68  2  0
 67 69  1  0
 69 70  1  0
 70 71  1  0
 70 72  1  0
 72 73  2  0
 72 74  1  0
 74 75  1  0
 75 76  1  0
 75 77  1  0
 77 78  2  0
 77 79  1  0
 79 80  1  0
 80 81  1  0
 80 82  1  0
 82 83  2  0
 82 84  1  0
 84 85  1  0
 85 86  1  0
 85 87  1  0
 87 88  2  0
 87 89  1  0
 89 90  1  0
 90 91  1  0
 90 92  1  0
 92 93  2  0
 92 94  1  0
 94 95  1  0
 95 96  1  0
 96 97  1  0
 96 98  2  0
 95 99  1  0
 99100  1  0
100101  1  0
 65  5  1  0
 14  9  2  0
101 11  1  0
  1102  1  0
  1103  1  0
  1104  1  0
  4105  1  0
  5106  1  6
  6107  1  0
  6108  1  0
  8109  1  0
  8110  1  0
 10111  1  0
 12112  1  0
 14113  1  0
 15114  1  0
 15115  1  0
 17116  1  0
 17117  1  0
 18118  1  6
 19119  1  0
 22120  1  6
 23121  1  0
 23122  1  0
 23123  1  0
 24124  1  0
 27125  1  1
 28126  1  0
 28127  1  0
 28128  1  0
 29129  1  0
 32130  1  1
 33131  1  0
 33132  1  0
 33133  1  0
 34134  1  0
 37135  1  6
 38136  1  0
 38137  1  0
 38138  1  0
 39139  1  0
 42140  1  1
 43141  1  0
 43142  1  0
 43143  1  0
 44144  1  0
 47145  1  6
 48146  1  0
 48147  1  0
 48148  1  0
 49149  1  0
 52150  1  6
 53151  1  0
 53152  1  0
 53153  1  0
 54154  1  0
 57155  1  6
 58156  1  0
 58157  1  0
 58158  1  0
 59159  1  0
 62160  1  6
 63161  1  0
 63162  1  0
 63163  1  0
 64164  1  0
 69165  1  0
 70166  1  1
 71167  1  0
 71168  1  0
 71169  1  0
 74170  1  0
 75171  1  6
 76172  1  0
 76173  1  0
 76174  1  0
 79175  1  0
 80176  1  6
 81177  1  0
 81178  1  0
 81179  1  0
 84180  1  0
 85181  1  6
 86182  1  0
 86183  1  0
 86184  1  0
 89185  1  0
 90186  1  6
 91187  1  0
 91188  1  0
 91189  1  0
 94190  1  0
 95191  1  1
 97192  1  0
 97193  1  0
 99194  1  0
 99195  1  0
101196  1  0
101197  1  0
M  END
