
     RDKit          3D

227229  0  0  0  0  0  0  0  0999 V2000
    4.1839  -10.0867   -0.4955 C   0  0  0  0  0  0  0  0  0  0  0  0
    3.6534   -8.8022    0.0602 C   0  0  0  0  0  0  0  0  0  0  0  0
    2.9216   -8.8274    1.0853 O   0  0  0  0  0  0  0  0  0  0  0  0
    3.9981   -7.5513   -0.5630 N   0  0  0  0  0  0  0  0  0  0  0  0
    3.5929   -6.2406   -0.0506 C   0  0  1  0  0  0  0  0  0  0  0  0
    2.0620   -6.0693   -0.1832 C   0  0  0  0  0  0  0  0  0  0  0  0
    1.5750   -4.3166    0.0742 S   0  0  0  0  0  0  0  0  0  0  0  0
    1.3423   -3.8366   -1.6770 C   0  0  0  0  0  0  0  0  0  0  0  0
   -0.0696   -3.3554   -1.8488 C   0  0  0  0  0  0  0  0  0  0  0  0
   -1.1153   -4.2895   -1.9292 C   0  0  0  0  0  0  0  0  0  0  0  0
   -2.4482   -3.8556   -2.0256 C   0  0  0  0  0  0  0  0  0  0  0  0
   -2.7204   -2.4762   -2.0914 C   0  0  0  0  0  0  0  0  0  0  0  0
   -1.6900   -1.5314   -1.9870 C   0  0  0  0  0  0  0  0  0  0  0  0
   -0.3615   -1.9828   -1.8548 C   0  0  0  0  0  0  0  0  0  0  0  0
   -2.0604   -0.0667   -1.9003 C   0  0  0  0  0  0  0  0  0  0  0  0
   -0.7080    1.0820   -2.3793 S   0  0  0  0  0  0  0  0  0  0  0  0
   -0.3733    1.8047   -0.7245 C   0  0  0  0  0  0  0  0  0  0  0  0
   -0.9208    3.2497   -0.6551 C   0  0  2  0  0  0  0  0  0  0  0  0
   -0.0811    4.1503   -1.4616 N   0  0  0  0  0  0  0  0  0  0  0  0
    1.3267    4.3713   -1.2530 C   0  0  0  0  0  0  0  0  0  0  0  0
    2.1292    4.1118   -2.1884 O   0  0  0  0  0  0  0  0  0  0  0  0
    1.8635    4.9639    0.0284 C   0  0  1  0  0  0  0  0  0  0  0  0
    2.6465    3.9238    0.8426 C   0  0  0  0  0  0  0  0  0  0  0  0
    2.6569    6.1663   -0.2757 N   0  0  0  0  0  0  0  0  0  0  0  0
    4.0934    6.2318   -0.2970 C   0  0  0  0  0  0  0  0  0  0  0  0
    4.7497    5.3178   -0.8638 O   0  0  0  0  0  0  0  0  0  0  0  0
    4.8485    7.3726    0.3579 C   0  0  1  0  0  0  0  0  0  0  0  0
    3.9117    8.4159    0.9819 C   0  0  0  0  0  0  0  0  0  0  0  0
    5.7347    6.8364    1.3933 N   0  0  0  0  0  0  0  0  0  0  0  0
    6.9044    7.5184    1.8773 C   0  0  0  0  0  0  0  0  0  0  0  0
    7.1890    7.4305    3.1047 O   0  0  0  0  0  0  0  0  0  0  0  0
    7.8097    8.3256    0.9749 C   0  0  1  0  0  0  0  0  0  0  0  0
    7.4109    9.8044    0.9922 C   0  0  0  0  0  0  0  0  0  0  0  0
    9.2046    8.1899    1.4182 N   0  0  0  0  0  0  0  0  0  0  0  0
   10.0743    7.0950    1.0744 C   0  0  0  0  0  0  0  0  0  0  0  0
   11.1569    6.9724    1.7186 O   0  0  0  0  0  0  0  0  0  0  0  0
    9.7871    6.1697   -0.0907 C   0  0  1  0  0  0  0  0  0  0  0  0
   10.1651    6.8340   -1.4268 C   0  0  0  0  0  0  0  0  0  0  0  0
   10.4464    4.8578    0.0542 N   0  0  0  0  0  0  0  0  0  0  0  0
   11.8496    4.6282   -0.1690 C   0  0  0  0  0  0  0  0  0  0  0  0
   12.6826    5.5580    0.0007 O   0  0  0  0  0  0  0  0  0  0  0  0
   12.3320    3.2572   -0.5824 C   0  0  1  0  0  0  0  0  0  0  0  0
   13.4732    3.3719   -1.6025 C   0  0  0  0  0  0  0  0  0  0  0  0
   12.7819    2.5101    0.5936 N   0  0  0  0  0  0  0  0  0  0  0  0
   12.9809    1.0879    0.5696 C   0  0  0  0  0  0  0  0  0  0  0  0
   14.0648    0.6241    1.0142 O   0  0  0  0  0  0  0  0  0  0  0  0
   11.9383    0.1413    0.0116 C   0  0  1  0  0  0  0  0  0  0  0  0
   12.2782   -0.2157   -1.4449 C   0  0  0  0  0  0  0  0  0  0  0  0
   11.8682   -1.0857    0.8189 N   0  0  0  0  0  0  0  0  0  0  0  0
   10.9644   -2.1568    0.4918 C   0  0  0  0  0  0  0  0  0  0  0  0
    9.8035   -1.8815    0.0836 O   0  0  0  0  0  0  0  0  0  0  0  0
   11.3773   -3.6087    0.5840 C   0  0  1  0  0  0  0  0  0  0  0  0
   12.8976   -3.7922    0.6479 C   0  0  0  0  0  0  0  0  0  0  0  0
   10.7586   -4.2425    1.7533 N   0  0  0  0  0  0  0  0  0  0  0  0
   10.3413   -5.6203    1.7942 C   0  0  0  0  0  0  0  0  0  0  0  0
   10.3908   -6.2353    2.8903 O   0  0  0  0  0  0  0  0  0  0  0  0
    9.8505   -6.3535    0.5639 C   0  0  1  0  0  0  0  0  0  0  0  0
   11.0054   -7.0627   -0.1586 C   0  0  0  0  0  0  0  0  0  0  0  0
    8.8393   -7.3439    0.9335 N   0  0  0  0  0  0  0  0  0  0  0  0
    7.4449   -7.1690    0.6559 C   0  0  0  0  0  0  0  0  0  0  0  0
    6.8213   -8.0882    0.0674 O   0  0  0  0  0  0  0  0  0  0  0  0
    6.7054   -5.9370    1.1245 C   0  0  1  0  0  0  0  0  0  0  0  0
    6.5431   -4.9125   -0.0050 C   0  0  0  0  0  0  0  0  0  0  0  0
    5.4422   -6.3405    1.7720 N   0  0  0  0  0  0  0  0  0  0  0  0
    4.0908   -6.0437    1.3739 C   0  0  0  0  0  0  0  0  0  0  0  0
    3.2664   -5.7398    2.2800 O   0  0  0  0  0  0  0  0  0  0  0  0
   -1.0761    3.7622    0.7643 C   0  0  0  0  0  0  0  0  0  0  0  0
   -0.6472    3.0754    1.7282 O   0  0  0  0  0  0  0  0  0  0  0  0
   -1.7310    5.0135    1.0602 N   0  0  0  0  0  0  0  0  0  0  0  0
   -2.3052    5.9375    0.0731 C   0  0  2  0  0  0  0  0  0  0  0  0
   -1.3455    7.1086   -0.1507 C   0  0  0  0  0  0  0  0  0  0  0  0
   -3.6297    6.4688    0.5790 C   0  0  0  0  0  0  0  0  0  0  0  0
   -3.6599    7.0852    1.6783 O   0  0  0  0  0  0  0  0  0  0  0  0
   -4.8267    6.3816   -0.2011 N   0  0  0  0  0  0  0  0  0  0  0  0
   -5.2873    5.1493   -0.8491 C   0  0  2  0  0  0  0  0  0  0  0  0
   -6.0202    5.4948   -2.1426 C   0  0  0  0  0  0  0  0  0  0  0  0
   -6.1925    4.3756    0.0696 C   0  0  0  0  0  0  0  0  0  0  0  0
   -6.2684    3.1212   -0.0413 O   0  0  0  0  0  0  0  0  0  0  0  0
   -6.9628    5.0437    1.0722 N   0  0  0  0  0  0  0  0  0  0  0  0
   -8.3299    5.4944    0.8112 C   0  0  2  0  0  0  0  0  0  0  0  0
   -8.4504    6.9769    1.1793 C   0  0  0  0  0  0  0  0  0  0  0  0
   -9.3237    4.6833    1.6171 C   0  0  0  0  0  0  0  0  0  0  0  0
   -8.9427    4.1186    2.6803 O   0  0  0  0  0  0  0  0  0  0  0  0
  -10.7124    4.6042    1.2548 N   0  0  0  0  0  0  0  0  0  0  0  0
  -11.1951    4.5358   -0.1284 C   0  0  2  0  0  0  0  0  0  0  0  0
  -11.4724    5.9438   -0.6732 C   0  0  0  0  0  0  0  0  0  0  0  0
  -12.4454    3.6761   -0.1805 C   0  0  0  0  0  0  0  0  0  0  0  0
  -13.5795    4.2293   -0.2211 O   0  0  0  0  0  0  0  0  0  0  0  0
  -12.3872    2.2429   -0.0904 N   0  0  0  0  0  0  0  0  0  0  0  0
  -11.1891    1.4459   -0.3757 C   0  0  2  0  0  0  0  0  0  0  0  0
  -10.9245    1.4000   -1.8840 C   0  0  0  0  0  0  0  0  0  0  0  0
  -11.3449    0.0394    0.1554 C   0  0  0  0  0  0  0  0  0  0  0  0
  -10.4723   -0.4297    0.9303 O   0  0  0  0  0  0  0  0  0  0  0  0
  -12.4240   -0.7924   -0.2997 N   0  0  0  0  0  0  0  0  0  0  0  0
  -12.4357   -2.2471   -0.0749 C   0  0  2  0  0  0  0  0  0  0  0  0
  -13.4008   -2.9127   -1.0630 C   0  0  0  0  0  0  0  0  0  0  0  0
  -12.8486   -2.5630    1.3442 C   0  0  0  0  0  0  0  0  0  0  0  0
  -13.5867   -1.7473    1.9596 O   0  0  0  0  0  0  0  0  0  0  0  0
  -12.4556   -3.7728    2.0214 N   0  0  0  0  0  0  0  0  0  0  0  0
  -11.8698   -4.9574    1.3765 C   0  0  2  0  0  0  0  0  0  0  0  0
  -12.9128   -6.0693    1.3125 C   0  0  0  0  0  0  0  0  0  0  0  0
  -10.6629   -5.4332    2.1575 C   0  0  0  0  0  0  0  0  0  0  0  0
  -10.7501   -5.5180    3.4154 O   0  0  0  0  0  0  0  0  0  0  0  0
   -9.4219   -5.7943    1.5281 N   0  0  0  0  0  0  0  0  0  0  0  0
   -9.2806   -6.3227    0.1690 C   0  0  2  0  0  0  0  0  0  0  0  0
   -9.2008   -7.8510    0.2227 C   0  0  0  0  0  0  0  0  0  0  0  0
   -8.0756   -5.6893   -0.4924 C   0  0  0  0  0  0  0  0  0  0  0  0
   -7.8652   -4.4582   -0.3069 O   0  0  0  0  0  0  0  0  0  0  0  0
   -7.2842   -6.3818   -1.4722 N   0  0  0  0  0  0  0  0  0  0  0  0
   -5.9640   -6.9744   -1.2019 C   0  0  2  0  0  0  0  0  0  0  0  0
   -6.1192   -8.4394   -0.8681 C   0  0  0  0  0  0  0  0  0  0  0  0
   -5.7697   -8.9905    0.4102 N   0  0  0  0  0  0  0  0  0  0  0  0
   -6.5782   -9.2135   -1.7503 O   0  0  0  0  0  0  0  0  0  0  0  0
   -5.1461   -6.1792   -0.1576 C   0  0  0  0  0  0  0  0  0  0  0  0
   -4.7740   -4.4725   -0.7017 S   0  0  0  0  0  0  0  0  0  0  0  0
   -3.5667   -4.8620   -2.0310 C   0  0  0  0  0  0  0  0  0  0  0  0
    4.7730   -9.9106   -1.4209 H   0  0  0  0  0  0  0  0  0  0  0  0
    3.3527  -10.7856   -0.7213 H   0  0  0  0  0  0  0  0  0  0  0  0
    4.8489  -10.5433    0.2618 H   0  0  0  0  0  0  0  0  0  0  0  0
    4.6226   -7.5688   -1.4050 H   0  0  0  0  0  0  0  0  0  0  0  0
    4.0381   -5.4616   -0.6944 H   0  0  0  0  0  0  0  0  0  0  0  0
    1.5381   -6.6914    0.5734 H   0  0  0  0  0  0  0  0  0  0  0  0
    1.7226   -6.4449   -1.1719 H   0  0  0  0  0  0  0  0  0  0  0  0
    1.5423   -4.6575   -2.4008 H   0  0  0  0  0  0  0  0  0  0  0  0
    2.0658   -3.0270   -1.9167 H   0  0  0  0  0  0  0  0  0  0  0  0
   -0.8940   -5.3442   -1.8789 H   0  0  0  0  0  0  0  0  0  0  0  0
   -3.7486   -2.1369   -2.1700 H   0  0  0  0  0  0  0  0  0  0  0  0
    0.4510   -1.2814   -1.7237 H   0  0  0  0  0  0  0  0  0  0  0  0
   -2.4431    0.1337   -0.8785 H   0  0  0  0  0  0  0  0  0  0  0  0
   -2.9076    0.1351   -2.5906 H   0  0  0  0  0  0  0  0  0  0  0  0
   -0.8104    1.1762    0.0811 H   0  0  0  0  0  0  0  0  0  0  0  0
    0.7205    1.7947   -0.5613 H   0  0  0  0  0  0  0  0  0  0  0  0
   -1.9436    3.2181   -1.0908 H   0  0  0  0  0  0  0  0  0  0  0  0
   -0.4645    4.4251   -2.3954 H   0  0  0  0  0  0  0  0  0  0  0  0
    1.0199    5.2890    0.6641 H   0  0  0  0  0  0  0  0  0  0  0  0
    3.4710    3.4772    0.2561 H   0  0  0  0  0  0  0  0  0  0  0  0
    3.0585    4.3962    1.7552 H   0  0  0  0  0  0  0  0  0  0  0  0
    1.9658    3.1088    1.1605 H   0  0  0  0  0  0  0  0  0  0  0  0
    2.1144    7.0503   -0.4174 H   0  0  0  0  0  0  0  0  0  0  0  0
    5.4466    7.8659   -0.4357 H   0  0  0  0  0  0  0  0  0  0  0  0
    3.2052    7.9310    1.6939 H   0  0  0  0  0  0  0  0  0  0  0  0
    4.4937    9.1746    1.5419 H   0  0  0  0  0  0  0  0  0  0  0  0
    3.3429    8.9459    0.1897 H   0  0  0  0  0  0  0  0  0  0  0  0
    5.3295    6.1055    2.0237 H   0  0  0  0  0  0  0  0  0  0  0  0
    7.7115    7.9743   -0.0713 H   0  0  0  0  0  0  0  0  0  0  0  0
    6.4211    9.9504    0.5218 H   0  0  0  0  0  0  0  0  0  0  0  0
    8.1502   10.3974    0.4134 H   0  0  0  0  0  0  0  0  0  0  0  0
    7.3756   10.1979    2.0321 H   0  0  0  0  0  0  0  0  0  0  0  0
    9.5237    8.8047    2.1977 H   0  0  0  0  0  0  0  0  0  0  0  0
    8.6973    5.9738   -0.1068 H   0  0  0  0  0  0  0  0  0  0  0  0
   11.2343    7.1238   -1.4409 H   0  0  0  0  0  0  0  0  0  0  0  0
    9.5577    7.7457   -1.5923 H   0  0  0  0  0  0  0  0  0  0  0  0
    9.9775    6.1269   -2.2655 H   0  0  0  0  0  0  0  0  0  0  0  0
    9.8250    4.0224    0.1332 H   0  0  0  0  0  0  0  0  0  0  0  0
   11.4810    2.7260   -1.0610 H   0  0  0  0  0  0  0  0  0  0  0  0
   13.7814    2.3666   -1.9655 H   0  0  0  0  0  0  0  0  0  0  0  0
   14.3604    3.8594   -1.1442 H   0  0  0  0  0  0  0  0  0  0  0  0
   13.1415    3.9734   -2.4776 H   0  0  0  0  0  0  0  0  0  0  0  0
   13.3198    3.0435    1.3179 H   0  0  0  0  0  0  0  0  0  0  0  0
   10.9462    0.6356    0.0400 H   0  0  0  0  0  0  0  0  0  0  0  0
   12.2370    0.6847   -2.0918 H   0  0  0  0  0  0  0  0  0  0  0  0
   13.2940   -0.6616   -1.5076 H   0  0  0  0  0  0  0  0  0  0  0  0
   11.5502   -0.9456   -1.8528 H   0  0  0  0  0  0  0  0  0  0  0  0
   12.5817   -1.2587    1.5608 H   0  0  0  0  0  0  0  0  0  0  0  0
   11.0308   -4.0940   -0.3532 H   0  0  0  0  0  0  0  0  0  0  0  0
   13.1566   -4.8715    0.5845 H   0  0  0  0  0  0  0  0  0  0  0  0
   13.3067   -3.4152    1.6089 H   0  0  0  0  0  0  0  0  0  0  0  0
   13.3886   -3.2666   -0.2010 H   0  0  0  0  0  0  0  0  0  0  0  0
   10.8811   -3.7606    2.6724 H   0  0  0  0  0  0  0  0  0  0  0  0
    9.4086   -5.6269   -0.1463 H   0  0  0  0  0  0  0  0  0  0  0  0
   11.5424   -7.7451    0.5368 H   0  0  0  0  0  0  0  0  0  0  0  0
   10.6001   -7.6643   -1.0025 H   0  0  0  0  0  0  0  0  0  0  0  0
   11.7244   -6.3303   -0.5778 H   0  0  0  0  0  0  0  0  0  0  0  0
    9.1559   -8.3031    1.2084 H   0  0  0  0  0  0  0  0  0  0  0  0
    7.3263   -5.4434    1.9057 H   0  0  0  0  0  0  0  0  0  0  0  0
    6.2758   -5.4081   -0.9632 H   0  0  0  0  0  0  0  0  0  0  0  0
    5.7820   -4.1519    0.2695 H   0  0  0  0  0  0  0  0  0  0  0  0
    7.4972   -4.3687   -0.1605 H   0  0  0  0  0  0  0  0  0  0  0  0
    5.5461   -6.7539    2.7275 H   0  0  0  0  0  0  0  0  0  0  0  0
   -1.6930    5.3357    2.0567 H   0  0  0  0  0  0  0  0  0  0  0  0
   -2.4458    5.4408   -0.9044 H   0  0  0  0  0  0  0  0  0  0  0  0
   -1.1294    7.6291    0.8086 H   0  0  0  0  0  0  0  0  0  0  0  0
   -1.7909    7.8314   -0.8684 H   0  0  0  0  0  0  0  0  0  0  0  0
   -0.3937    6.7472   -0.5836 H   0  0  0  0  0  0  0  0  0  0  0  0
   -5.5368    7.1334   -0.0483 H   0  0  0  0  0  0  0  0  0  0  0  0
   -4.4250    4.5053   -1.1042 H   0  0  0  0  0  0  0  0  0  0  0  0
   -5.3367    6.0391   -2.8303 H   0  0  0  0  0  0  0  0  0  0  0  0
   -6.8987    6.1449   -1.9367 H   0  0  0  0  0  0  0  0  0  0  0  0
   -6.3717    4.5717   -2.6510 H   0  0  0  0  0  0  0  0  0  0  0  0
   -6.5605    5.1273    2.0326 H   0  0  0  0  0  0  0  0  0  0  0  0
   -8.5578    5.3778   -0.2666 H   0  0  0  0  0  0  0  0  0  0  0  0
   -8.0929    7.1548    2.2138 H   0  0  0  0  0  0  0  0  0  0  0  0
   -9.5013    7.3240    1.1011 H   0  0  0  0  0  0  0  0  0  0  0  0
   -7.8287    7.5828    0.4868 H   0  0  0  0  0  0  0  0  0  0  0  0
  -11.3812    4.3613    2.0247 H   0  0  0  0  0  0  0  0  0  0  0  0
  -10.4197    4.0814   -0.7748 H   0  0  0  0  0  0  0  0  0  0  0  0
  -10.5270    6.5006   -0.8314 H   0  0  0  0  0  0  0  0  0  0  0  0
  -11.9804    5.8803   -1.6583 H   0  0  0  0  0  0  0  0  0  0  0  0
  -12.1155    6.5152    0.0308 H   0  0  0  0  0  0  0  0  0  0  0  0
  -13.2811    1.7522    0.1376 H   0  0  0  0  0  0  0  0  0  0  0  0
  -10.3096    1.9052    0.1279 H   0  0  0  0  0  0  0  0  0  0  0  0
  -10.0217    0.7879   -2.0922 H   0  0  0  0  0  0  0  0  0  0  0  0
  -11.7925    0.9629   -2.4234 H   0  0  0  0  0  0  0  0  0  0  0  0
  -10.7478    2.4180   -2.2852 H   0  0  0  0  0  0  0  0  0  0  0  0
  -13.1372   -0.3747   -0.9362 H   0  0  0  0  0  0  0  0  0  0  0  0
  -11.4134   -2.6252   -0.2713 H   0  0  0  0  0  0  0  0  0  0  0  0
  -13.1333   -2.6259   -2.1015 H   0  0  0  0  0  0  0  0  0  0  0  0
  -14.4457   -2.5895   -0.8597 H   0  0  0  0  0  0  0  0  0  0  0  0
  -13.3488   -4.0190   -0.9859 H   0  0  0  0  0  0  0  0  0  0  0  0
  -12.7545   -3.8668    3.0206 H   0  0  0  0  0  0  0  0  0  0  0  0
  -11.5696   -4.7127    0.3468 H   0  0  0  0  0  0  0  0  0  0  0  0
  -13.8214   -5.7162    0.7763 H   0  0  0  0  0  0  0  0  0  0  0  0
  -12.4974   -6.9475    0.7673 H   0  0  0  0  0  0  0  0  0  0  0  0
  -13.2125   -6.3882    2.3349 H   0  0  0  0  0  0  0  0  0  0  0  0
   -8.5906   -5.8927    2.1578 H   0  0  0  0  0  0  0  0  0  0  0  0
  -10.1538   -6.0719   -0.4591 H   0  0  0  0  0  0  0  0  0  0  0  0
  -10.1354   -8.2554    0.6743 H   0  0  0  0  0  0  0  0  0  0  0  0
   -8.3431   -8.1732    0.8438 H   0  0  0  0  0  0  0  0  0  0  0  0
   -9.1105   -8.2752   -0.7989 H   0  0  0  0  0  0  0  0  0  0  0  0
   -7.5490   -6.2312   -2.4736 H   0  0  0  0  0  0  0  0  0  0  0  0
   -5.3773   -6.9491   -2.1488 H   0  0  0  0  0  0  0  0  0  0  0  0
   -5.9606   -9.9954    0.6140 H   0  0  0  0  0  0  0  0  0  0  0  0
   -5.4197   -8.3982    1.1924 H   0  0  0  0  0  0  0  0  0  0  0  0
   -4.1852   -6.6951    0.0528 H   0  0  0  0  0  0  0  0  0  0  0  0
   -5.7105   -6.1097    0.7964 H   0  0  0  0  0  0  0  0  0  0  0  0
   -3.1627   -5.8876   -1.9025 H   0  0  0  0  0  0  0  0  0  0  0  0
   -4.0955   -4.8143   -3.0108 H   0  0  0  0  0  0  0  0  0  0  0  0
  1  2  1  0
  2  3  2  0
  2  4  1  0
  4  5  1  0
  5  6  1  0
  6  7  1  0
  7  8  1  0
  8  9  1  0
  9 10  1  0
 10 11  2  0
 11 12  1  0
 12 13  2  0
 13 14  1  0
 13 15  1  0
 15 16  1  0
 16 17  1  0
 17 18  1  0
 18 19  1  0
 19 20  1  0
 20 21  2  0
 20 22  1  0
 22 23  1  0
 22 24  1  0
 24 25  1  0
 25 26  2  0
 25 27  1  0
 27 28  1  0
 27 29  1  0
 29 30  1  0
 30 31  2  0
 30 32  1  0
 32 33  1  0
 32 34  1  0
 34 35  1  0
 35 36  2  0
 35 37  1  0
 37 38  1  0
 37 39  1  0
 39 40  1  0
 40 41  2  0
 40 42  1  0
 42 43  1  0
 42 44  1  0
 44 45  1  0
 45 46  2  0
 45 47  1  0
 47 48  1  0
 47 49  1  0
 49 50  1  0
 50 51  2  0
 50 52  1  0
 52 53  1  0
 52 54  1  0
 54 55  1  0
 55 56  2  0
 55 57  1  0
 57 58  1  0
 57 59  1  0
 59 60  1  0
 60 61  2  0
 60 62  1  0
 62 63  1  0
 62 64  1  0
 64 65  1  0
 65 66  2  0
 18 67  1  0
 67 68  2  0
 67 69  1  0
 69 70  1  0
 70 71  1  0
 70 72  1  0
 72 73  2  0
 72 74  1  0
 74 75  1  0
 75 76  1  0
 75 77  1  0
 77 78  2  0
 77 79  1  0
 79 80  1  0
 80 81  1  0
 80 82  1  0
 82 83  2  0
 82 84  1  0
 84 85  1  0
 85 86  1  0
 85 87  1  0
 87 88  2  0
 87 89  1  0
 89 90  1  0
 90 91  1  0
 90 92  1  0
 92 93  2  0
 92 94  1  0
 94 95  1  0
 95 96  1  0
 95 97  1  0
 97 98  2  0
 97 99  1  0
 99100  1  0
100101  1  0
100102  1  0
102103  2  0
102104  1  0
104105  1  0
105106  1  0
105107  1  0
107108  2  0
107109  1  0
109110  1  0
110111  1  0
111112  1  0
111113  2  0
110114  1  0
114115  1  0
115116  1  0
 65  5  1  0
 14  9  2  0
116 11  1  0
  1117  1  0
  1118  1  0
  1119  1  0
  4120  1  0
  5121  1  6
  6122  1  0
  6123  1  0
  8124  1  0
  8125  1  0
 10126  1  0
 12127  1  0
 14128  1  0
 15129  1  0
 15130  1  0
 17131  1  0
 17132  1  0
 18133  1  6
 19134  1  0
 22135  1  1
 23136  1  0
 23137  1  0
 23138  1  0
 24139  1  0
 27140  1  6
 28141  1  0
 28142  1  0
 28143  1  0
 29144  1  0
 32145  1  6
 33146  1  0
 33147  1  0
 33148  1  0
 34149  1  0
 37150  1  6
 38151  1  0
 38152  1  0
 38153  1  0
 39154  1  0
 42155  1  6
 43156  1  0
 43157  1  0
 43158  1  0
 44159  1  0
 47160  1  6
 48161  1  0
 48162  1  0
 48163  1  0
 49164  1  0
 52165  1  6
 53166  1  0
 53167  1  0
 53168  1  0
 54169  1  0
 57170  1  6
 58171  1  0
 58172  1  0
 58173  1  0
 59174  1  0
 62175  1  1
 63176  1  0
 63177  1  0
 63178  1  0
 64179  1  0
 69180  1  0
 70181  1  6
 71182  1  0
 71183  1  0
 71184  1  0
 74185  1  0
 75186  1  6
 76187  1  0
 76188  1  0
 76189  1  0
 79190  1  0
 80191  1  6
 81192  1  0
 81193  1  0
 81194  1  0
 84195  1  0
 85196  1  6
 86197  1  0
 86198  1  0
 86199  1  0
 89200  1  0
 90201  1  1
 91202  1  0
 91203  1  0
 91204  1  0
 94205  1  0
 95206  1  6
 96207  1  0
 96208  1  0
 96209  1  0
 99210  1  0
100211  1  6
101212  1  0
101213  1  0
101214  1  0
104215  1  0
105216  1  6
106217  1  0
106218  1  0
106219  1  0
109220  1  0
110221  1  6
112222  1  0
112223  1  0
114224  1  0
114225  1  0
116226  1  0
116227  1  0
M  END
