
     RDKit          3D

227229  0  0  0  0  0  0  0  0999 V2000
   -4.1890    7.9054   -1.6824 C   0  0  0  0  0  0  0  0  0  0  0  0
   -4.1864    6.4322   -1.4100 C   0  0  0  0  0  0  0  0  0  0  0  0
   -3.8493    5.6438   -2.3349 O   0  0  0  0  0  0  0  0  0  0  0  0
   -4.7378    5.9033   -0.1980 N   0  0  0  0  0  0  0  0  0  0  0  0
   -4.4130    6.4455    1.1334 C   0  0  2  0  0  0  0  0  0  0  0  0
   -3.4663    5.5406    1.9791 C   0  0  0  0  0  0  0  0  0  0  0  0
   -3.3210    3.7945    1.4337 S   0  0  0  0  0  0  0  0  0  0  0  0
   -1.8277    3.9585    0.3769 C   0  0  0  0  0  0  0  0  0  0  0  0
   -0.6266    3.2720    0.9842 C   0  0  0  0  0  0  0  0  0  0  0  0
    0.6609    3.8353    0.8127 C   0  0  0  0  0  0  0  0  0  0  0  0
    1.8018    3.1794    1.3123 C   0  0  0  0  0  0  0  0  0  0  0  0
    1.6390    2.0125    2.0774 C   0  0  0  0  0  0  0  0  0  0  0  0
    0.3905    1.3611    2.1432 C   0  0  0  0  0  0  0  0  0  0  0  0
   -0.7398    2.0148    1.6069 C   0  0  0  0  0  0  0  0  0  0  0  0
    0.2425   -0.0278    2.7320 C   0  0  0  0  0  0  0  0  0  0  0  0
    1.8355   -0.9579    2.7193 S   0  0  0  0  0  0  0  0  0  0  0  0
    1.1882   -2.6609    2.9814 C   0  0  0  0  0  0  0  0  0  0  0  0
    1.6821   -3.5790    1.8441 C   0  0  2  0  0  0  0  0  0  0  0  0
    0.9783   -3.3425    0.5777 N   0  0  0  0  0  0  0  0  0  0  0  0
   -0.4379   -3.1295    0.4270 C   0  0  0  0  0  0  0  0  0  0  0  0
   -0.8262   -2.0713   -0.1361 O   0  0  0  0  0  0  0  0  0  0  0  0
   -1.4687   -4.1863    0.8302 C   0  0  1  0  0  0  0  0  0  0  0  0
   -2.4444   -3.6121    1.8704 C   0  0  0  0  0  0  0  0  0  0  0  0
   -2.1939   -4.6222   -0.3815 N   0  0  0  0  0  0  0  0  0  0  0  0
   -3.4134   -5.3938   -0.3412 C   0  0  0  0  0  0  0  0  0  0  0  0
   -4.5048   -4.8060   -0.6064 O   0  0  0  0  0  0  0  0  0  0  0  0
   -3.3884   -6.8712   -0.0390 C   0  0  1  0  0  0  0  0  0  0  0  0
   -3.4520   -7.1717    1.4810 C   0  0  0  0  0  0  0  0  0  0  0  0
   -4.4690   -7.5202   -0.7918 N   0  0  0  0  0  0  0  0  0  0  0  0
   -5.5589   -8.2835   -0.2361 C   0  0  0  0  0  0  0  0  0  0  0  0
   -5.3306   -9.4452    0.2058 O   0  0  0  0  0  0  0  0  0  0  0  0
   -6.9698   -7.7449   -0.1553 C   0  0  1  0  0  0  0  0  0  0  0  0
   -7.1430   -6.9189    1.1180 C   0  0  0  0  0  0  0  0  0  0  0  0
   -7.2973   -6.9440   -1.3406 N   0  0  0  0  0  0  0  0  0  0  0  0
   -8.6576   -6.5991   -1.6538 C   0  0  0  0  0  0  0  0  0  0  0  0
   -9.3501   -7.4196   -2.3309 O   0  0  0  0  0  0  0  0  0  0  0  0
   -9.2634   -5.2852   -1.2073 C   0  0  1  0  0  0  0  0  0  0  0  0
   -8.2027   -4.1881   -1.0088 C   0  0  0  0  0  0  0  0  0  0  0  0
  -10.2024   -4.8136   -2.2444 N   0  0  0  0  0  0  0  0  0  0  0  0
  -11.2116   -3.8533   -1.9091 C   0  0  0  0  0  0  0  0  0  0  0  0
  -12.3130   -4.2799   -1.4407 O   0  0  0  0  0  0  0  0  0  0  0  0
  -11.0827   -2.4499   -2.4302 C   0  0  1  0  0  0  0  0  0  0  0  0
  -11.9084   -2.2319   -3.7071 C   0  0  0  0  0  0  0  0  0  0  0  0
  -11.3488   -1.4167   -1.4167 N   0  0  0  0  0  0  0  0  0  0  0  0
  -12.6802   -1.0839   -0.9327 C   0  0  0  0  0  0  0  0  0  0  0  0
  -13.5640   -1.9793   -0.8685 O   0  0  0  0  0  0  0  0  0  0  0  0
  -13.0797    0.3370   -0.6048 C   0  0  1  0  0  0  0  0  0  0  0  0
  -13.8629    0.4282    0.7253 C   0  0  0  0  0  0  0  0  0  0  0  0
  -11.9419    1.2653   -0.5816 N   0  0  0  0  0  0  0  0  0  0  0  0
  -11.5411    2.0266   -1.7373 C   0  0  0  0  0  0  0  0  0  0  0  0
  -10.4138    1.7947   -2.2453 O   0  0  0  0  0  0  0  0  0  0  0  0
  -12.3575    3.1858   -2.2599 C   0  0  1  0  0  0  0  0  0  0  0  0
  -13.5042    2.7150   -3.1717 C   0  0  0  0  0  0  0  0  0  0  0  0
  -12.8790    4.0171   -1.1836 N   0  0  0  0  0  0  0  0  0  0  0  0
  -12.1706    5.1623   -0.6592 C   0  0  0  0  0  0  0  0  0  0  0  0
  -12.7995    6.2280   -0.4611 O   0  0  0  0  0  0  0  0  0  0  0  0
  -10.6853    5.1107   -0.3884 C   0  0  1  0  0  0  0  0  0  0  0  0
   -9.9224    6.0692   -1.3187 C   0  0  0  0  0  0  0  0  0  0  0  0
  -10.4174    5.4484    1.0093 N   0  0  0  0  0  0  0  0  0  0  0  0
   -9.1406    5.1650    1.5942 C   0  0  0  0  0  0  0  0  0  0  0  0
   -8.8372    3.9721    1.8631 O   0  0  0  0  0  0  0  0  0  0  0  0
   -8.2089    6.2875    1.9815 C   0  0  1  0  0  0  0  0  0  0  0  0
   -8.5858    6.7801    3.3839 C   0  0  0  0  0  0  0  0  0  0  0  0
   -6.7897    5.8402    1.9652 N   0  0  0  0  0  0  0  0  0  0  0  0
   -5.6977    6.7794    1.8619 C   0  0  0  0  0  0  0  0  0  0  0  0
   -5.8491    7.9282    2.3549 O   0  0  0  0  0  0  0  0  0  0  0  0
    1.6679   -5.0495    2.2236 C   0  0  0  0  0  0  0  0  0  0  0  0
    0.8091   -5.4699    3.0426 O   0  0  0  0  0  0  0  0  0  0  0  0
    2.6354   -5.9819    1.6801 N   0  0  0  0  0  0  0  0  0  0  0  0
    3.6691   -5.6550    0.6841 C   0  0  2  0  0  0  0  0  0  0  0  0
    3.0971   -5.7200   -0.7345 C   0  0  0  0  0  0  0  0  0  0  0  0
    4.8519   -6.5724    0.8626 C   0  0  0  0  0  0  0  0  0  0  0  0
    4.7131   -7.8189    0.7175 O   0  0  0  0  0  0  0  0  0  0  0  0
    6.1129   -6.0495    1.2709 N   0  0  0  0  0  0  0  0  0  0  0  0
    7.1638   -5.6053    0.3525 C   0  0  2  0  0  0  0  0  0  0  0  0
    6.6353   -4.6823   -0.7542 C   0  0  0  0  0  0  0  0  0  0  0  0
    7.9115   -6.7855   -0.2080 C   0  0  0  0  0  0  0  0  0  0  0  0
    7.2803   -7.7501   -0.7225 O   0  0  0  0  0  0  0  0  0  0  0  0
    9.3466   -6.8294   -0.1665 N   0  0  0  0  0  0  0  0  0  0  0  0
   10.1557   -6.0359   -1.1047 C   0  0  2  0  0  0  0  0  0  0  0  0
   10.3762   -6.8393   -2.3848 C   0  0  0  0  0  0  0  0  0  0  0  0
   11.5064   -5.7025   -0.4979 C   0  0  0  0  0  0  0  0  0  0  0  0
   12.2544   -6.6565   -0.1249 O   0  0  0  0  0  0  0  0  0  0  0  0
   12.0026   -4.3509   -0.3659 N   0  0  0  0  0  0  0  0  0  0  0  0
   11.2153   -3.1547   -0.0027 C   0  0  2  0  0  0  0  0  0  0  0  0
   10.1874   -3.4611    1.1004 C   0  0  0  0  0  0  0  0  0  0  0  0
   10.6466   -2.4662   -1.2227 C   0  0  0  0  0  0  0  0  0  0  0  0
   10.5641   -3.0911   -2.3220 O   0  0  0  0  0  0  0  0  0  0  0  0
   10.2932   -1.0733   -1.1978 N   0  0  0  0  0  0  0  0  0  0  0  0
    9.6679   -0.3632   -0.0727 C   0  0  2  0  0  0  0  0  0  0  0  0
    8.3736    0.2826   -0.5665 C   0  0  0  0  0  0  0  0  0  0  0  0
   10.6065    0.6627    0.4990 C   0  0  0  0  0  0  0  0  0  0  0  0
   10.2354    1.3904    1.4604 O   0  0  0  0  0  0  0  0  0  0  0  0
   11.9360    0.8191   -0.0046 N   0  0  0  0  0  0  0  0  0  0  0  0
   12.3080    1.9981   -0.7678 C   0  0  2  0  0  0  0  0  0  0  0  0
   13.5160    1.7002   -1.6451 C   0  0  0  0  0  0  0  0  0  0  0  0
   12.6295    3.1461    0.1693 C   0  0  0  0  0  0  0  0  0  0  0  0
   13.2252    2.9059    1.2557 O   0  0  0  0  0  0  0  0  0  0  0  0
   12.3652    4.5234   -0.1715 N   0  0  0  0  0  0  0  0  0  0  0  0
   11.5806    4.9699   -1.3251 C   0  0  2  0  0  0  0  0  0  0  0  0
   11.9582    6.4038   -1.7113 C   0  0  0  0  0  0  0  0  0  0  0  0
   10.0980    4.8431   -1.0621 C   0  0  0  0  0  0  0  0  0  0  0  0
    9.4870    3.7971   -1.3909 O   0  0  0  0  0  0  0  0  0  0  0  0
    9.3442    5.9265   -0.4957 N   0  0  0  0  0  0  0  0  0  0  0  0
    9.3964    6.3389    0.9180 C   0  0  2  0  0  0  0  0  0  0  0  0
    9.6163    5.1613    1.8753 C   0  0  0  0  0  0  0  0  0  0  0  0
    8.1308    7.0940    1.2865 C   0  0  0  0  0  0  0  0  0  0  0  0
    8.2556    8.2724    1.6997 O   0  0  0  0  0  0  0  0  0  0  0  0
    6.7952    6.5407    1.1828 N   0  0  0  0  0  0  0  0  0  0  0  0
    6.4266    5.2742    0.5372 C   0  0  2  0  0  0  0  0  0  0  0  0
    5.6087    5.5391   -0.7108 C   0  0  0  0  0  0  0  0  0  0  0  0
    4.4194    6.3166   -0.6690 N   0  0  0  0  0  0  0  0  0  0  0  0
    6.0069    5.1040   -1.8206 O   0  0  0  0  0  0  0  0  0  0  0  0
    5.7358    4.3300    1.5573 C   0  0  0  0  0  0  0  0  0  0  0  0
    4.0044    4.7493    2.0193 S   0  0  0  0  0  0  0  0  0  0  0  0
    3.1796    3.5800    0.8532 C   0  0  0  0  0  0  0  0  0  0  0  0
   -3.1568    8.2218   -1.9167 H   0  0  0  0  0  0  0  0  0  0  0  0
   -4.5853    8.4829   -0.8263 H   0  0  0  0  0  0  0  0  0  0  0  0
   -4.8539    8.1168   -2.5605 H   0  0  0  0  0  0  0  0  0  0  0  0
   -5.2024    4.9677   -0.2649 H   0  0  0  0  0  0  0  0  0  0  0  0
   -3.8536    7.4115    1.0152 H   0  0  0  0  0  0  0  0  0  0  0  0
   -2.4461    6.0036    2.0708 H   0  0  0  0  0  0  0  0  0  0  0  0
   -3.8373    5.4923    3.0272 H   0  0  0  0  0  0  0  0  0  0  0  0
   -2.0433    3.4717   -0.6009 H   0  0  0  0  0  0  0  0  0  0  0  0
   -1.6112    5.0246    0.1675 H   0  0  0  0  0  0  0  0  0  0  0  0
    0.7696    4.7672    0.2810 H   0  0  0  0  0  0  0  0  0  0  0  0
    2.5272    1.6038    2.5732 H   0  0  0  0  0  0  0  0  0  0  0  0
   -1.6851    1.5066    1.6357 H   0  0  0  0  0  0  0  0  0  0  0  0
   -0.4959   -0.5927    2.1262 H   0  0  0  0  0  0  0  0  0  0  0  0
   -0.1521    0.0308    3.7687 H   0  0  0  0  0  0  0  0  0  0  0  0
    1.6149   -3.0265    3.9387 H   0  0  0  0  0  0  0  0  0  0  0  0
    0.0885   -2.6906    3.0823 H   0  0  0  0  0  0  0  0  0  0  0  0
    2.7293   -3.2779    1.7103 H   0  0  0  0  0  0  0  0  0  0  0  0
    1.5671   -3.0423   -0.2312 H   0  0  0  0  0  0  0  0  0  0  0  0
   -0.9492   -5.0690    1.2552 H   0  0  0  0  0  0  0  0  0  0  0  0
   -2.8124   -2.6059    1.5667 H   0  0  0  0  0  0  0  0  0  0  0  0
   -3.3409   -4.2503    1.9869 H   0  0  0  0  0  0  0  0  0  0  0  0
   -1.9597   -3.5121    2.8690 H   0  0  0  0  0  0  0  0  0  0  0  0
   -1.9687   -4.1807   -1.3040 H   0  0  0  0  0  0  0  0  0  0  0  0
   -2.4334   -7.2767   -0.4117 H   0  0  0  0  0  0  0  0  0  0  0  0
   -2.6050   -6.6846    1.9959 H   0  0  0  0  0  0  0  0  0  0  0  0
   -4.4028   -6.8090    1.9346 H   0  0  0  0  0  0  0  0  0  0  0  0
   -3.3455   -8.2643    1.6378 H   0  0  0  0  0  0  0  0  0  0  0  0
   -4.4813   -7.3750   -1.8275 H   0  0  0  0  0  0  0  0  0  0  0  0
   -7.6734   -8.6104   -0.1026 H   0  0  0  0  0  0  0  0  0  0  0  0
   -8.1877   -6.5684    1.1866 H   0  0  0  0  0  0  0  0  0  0  0  0
   -6.9191   -7.5381    2.0055 H   0  0  0  0  0  0  0  0  0  0  0  0
   -6.4805   -6.0293    1.1031 H   0  0  0  0  0  0  0  0  0  0  0  0
   -6.6652   -6.9464   -2.1621 H   0  0  0  0  0  0  0  0  0  0  0  0
   -9.8234   -5.4468   -0.2575 H   0  0  0  0  0  0  0  0  0  0  0  0
   -8.6988   -3.2296   -0.7719 H   0  0  0  0  0  0  0  0  0  0  0  0
   -7.6024   -4.0751   -1.9333 H   0  0  0  0  0  0  0  0  0  0  0  0
   -7.4972   -4.4543   -0.1955 H   0  0  0  0  0  0  0  0  0  0  0  0
   -9.7783   -4.6863   -3.1920 H   0  0  0  0  0  0  0  0  0  0  0  0
  -10.0036   -2.3328   -2.7218 H   0  0  0  0  0  0  0  0  0  0  0  0
  -11.7556   -1.1983   -4.0699 H   0  0  0  0  0  0  0  0  0  0  0  0
  -11.5995   -2.9394   -4.5073 H   0  0  0  0  0  0  0  0  0  0  0  0
  -12.9843   -2.3985   -3.5031 H   0  0  0  0  0  0  0  0  0  0  0  0
  -10.6720   -0.6326   -1.4650 H   0  0  0  0  0  0  0  0  0  0  0  0
  -13.7769    0.6418   -1.4113 H   0  0  0  0  0  0  0  0  0  0  0  0
  -14.1928   -0.5673    1.1044 H   0  0  0  0  0  0  0  0  0  0  0  0
  -14.7687    1.0547    0.5820 H   0  0  0  0  0  0  0  0  0  0  0  0
  -13.2539    0.8879    1.5280 H   0  0  0  0  0  0  0  0  0  0  0  0
  -11.2010    1.0998    0.1380 H   0  0  0  0  0  0  0  0  0  0  0  0
  -11.6894    3.8086   -2.9047 H   0  0  0  0  0  0  0  0  0  0  0  0
  -13.2060    1.8186   -3.7660 H   0  0  0  0  0  0  0  0  0  0  0  0
  -13.7793    3.5316   -3.8682 H   0  0  0  0  0  0  0  0  0  0  0  0
  -14.4115    2.4544   -2.5852 H   0  0  0  0  0  0  0  0  0  0  0  0
  -13.8742    3.9006   -0.8659 H   0  0  0  0  0  0  0  0  0  0  0  0
  -10.3040    4.0936   -0.5800 H   0  0  0  0  0  0  0  0  0  0  0  0
  -10.1407    5.8313   -2.3819 H   0  0  0  0  0  0  0  0  0  0  0  0
  -10.2265    7.1226   -1.0985 H   0  0  0  0  0  0  0  0  0  0  0  0
   -8.8380    5.9876   -1.1367 H   0  0  0  0  0  0  0  0  0  0  0  0
  -11.2236    5.3963    1.6815 H   0  0  0  0  0  0  0  0  0  0  0  0
   -8.3210    7.1283    1.2528 H   0  0  0  0  0  0  0  0  0  0  0  0
   -9.6203    7.2030    3.3908 H   0  0  0  0  0  0  0  0  0  0  0  0
   -8.5619    5.9420    4.1110 H   0  0  0  0  0  0  0  0  0  0  0  0
   -7.8795    7.5508    3.7419 H   0  0  0  0  0  0  0  0  0  0  0  0
   -6.5902    4.9224    1.4960 H   0  0  0  0  0  0  0  0  0  0  0  0
    2.5679   -6.9646    2.0337 H   0  0  0  0  0  0  0  0  0  0  0  0
    4.0483   -4.6272    0.8557 H   0  0  0  0  0  0  0  0  0  0  0  0
    1.9843   -5.6701   -0.7307 H   0  0  0  0  0  0  0  0  0  0  0  0
    3.5060   -4.8955   -1.3593 H   0  0  0  0  0  0  0  0  0  0  0  0
    3.3800   -6.6715   -1.2389 H   0  0  0  0  0  0  0  0  0  0  0  0
    6.4204   -6.3282    2.2274 H   0  0  0  0  0  0  0  0  0  0  0  0
    7.8861   -5.0218    0.9565 H   0  0  0  0  0  0  0  0  0  0  0  0
    5.9667   -5.2305   -1.4499 H   0  0  0  0  0  0  0  0  0  0  0  0
    6.1023   -3.8356   -0.2965 H   0  0  0  0  0  0  0  0  0  0  0  0
    7.4809   -4.2635   -1.3360 H   0  0  0  0  0  0  0  0  0  0  0  0
    9.7547   -7.7373    0.1552 H   0  0  0  0  0  0  0  0  0  0  0  0
    9.6161   -5.1035   -1.3446 H   0  0  0  0  0  0  0  0  0  0  0  0
   11.1585   -6.3708   -3.0255 H   0  0  0  0  0  0  0  0  0  0  0  0
    9.4321   -6.9022   -2.9686 H   0  0  0  0  0  0  0  0  0  0  0  0
   10.7327   -7.8589   -2.1361 H   0  0  0  0  0  0  0  0  0  0  0  0
   13.0403   -4.2644   -0.2794 H   0  0  0  0  0  0  0  0  0  0  0  0
   11.9419   -2.4181    0.4220 H   0  0  0  0  0  0  0  0  0  0  0  0
   10.3729   -2.8060    1.9835 H   0  0  0  0  0  0  0  0  0  0  0  0
    9.1448   -3.2790    0.7316 H   0  0  0  0  0  0  0  0  0  0  0  0
   10.2998   -4.5009    1.4770 H   0  0  0  0  0  0  0  0  0  0  0  0
   10.3697   -0.5596   -2.1154 H   0  0  0  0  0  0  0  0  0  0  0  0
    9.4046   -1.0516    0.7325 H   0  0  0  0  0  0  0  0  0  0  0  0
    7.7149   -0.5230   -0.9665 H   0  0  0  0  0  0  0  0  0  0  0  0
    8.5734    0.9938   -1.3815 H   0  0  0  0  0  0  0  0  0  0  0  0
    7.8388    0.7891    0.2709 H   0  0  0  0  0  0  0  0  0  0  0  0
   12.6800    0.2428    0.4445 H   0  0  0  0  0  0  0  0  0  0  0  0
   11.4611    2.2531   -1.4455 H   0  0  0  0  0  0  0  0  0  0  0  0
   14.3742    1.3463   -1.0275 H   0  0  0  0  0  0  0  0  0  0  0  0
   13.2591    0.8996   -2.3826 H   0  0  0  0  0  0  0  0  0  0  0  0
   13.8290    2.6026   -2.2079 H   0  0  0  0  0  0  0  0  0  0  0  0
   12.8393    5.2399    0.4119 H   0  0  0  0  0  0  0  0  0  0  0  0
   11.8287    4.3395   -2.2041 H   0  0  0  0  0  0  0  0  0  0  0  0
   11.2864    6.7899   -2.5113 H   0  0  0  0  0  0  0  0  0  0  0  0
   13.0021    6.4247   -2.0982 H   0  0  0  0  0  0  0  0  0  0  0  0
   11.8960    7.0766   -0.8293 H   0  0  0  0  0  0  0  0  0  0  0  0
    8.5896    6.3259   -1.1067 H   0  0  0  0  0  0  0  0  0  0  0  0
   10.2645    7.0181    1.0447 H   0  0  0  0  0  0  0  0  0  0  0  0
   10.5973    4.6874    1.6902 H   0  0  0  0  0  0  0  0  0  0  0  0
    9.5949    5.5069    2.9368 H   0  0  0  0  0  0  0  0  0  0  0  0
    8.8397    4.3765    1.7630 H   0  0  0  0  0  0  0  0  0  0  0  0
    6.0368    7.1233    1.5866 H   0  0  0  0  0  0  0  0  0  0  0  0
    7.3245    4.7388    0.1980 H   0  0  0  0  0  0  0  0  0  0  0  0
    3.7198    6.2287   -1.4305 H   0  0  0  0  0  0  0  0  0  0  0  0
    4.1935    6.9301    0.1504 H   0  0  0  0  0  0  0  0  0  0  0  0
    5.8271    3.2884    1.1758 H   0  0  0  0  0  0  0  0  0  0  0  0
    6.3404    4.3440    2.4857 H   0  0  0  0  0  0  0  0  0  0  0  0
    3.7886    2.6515    0.7492 H   0  0  0  0  0  0  0  0  0  0  0  0
    3.1179    4.0442   -0.1475 H   0  0  0  0  0  0  0  0  0  0  0  0
  1  2  1  0
  2  3  2  0
  2  4  1  0
  4  5  1  0
  5  6  1  0
  6  7  1  0
  7  8  1  0
  8  9  1  0
  9 10  1  0
 10 11  2  0
 11 12  1  0
 12 13  2  0
 13 14  1  0
 13 15  1  0
 15 16  1  0
 16 17  1  0
 17 18  1  0
 18 19  1  0
 19 20  1  0
 20 21  2  0
 20 22  1  0
 22 23  1  0
 22 24  1  0
 24 25  1  0
 25 26  2  0
 25 27  1  0
 27 28  1  0
 27 29  1  0
 29 30  1  0
 30 31  2  0
 30 32  1  0
 32 33  1  0
 32 34  1  0
 34 35  1  0
 35 36  2  0
 35 37  1  0
 37 38  1  0
 37 39  1  0
 39 40  1  0
 40 41  2  0
 40 42  1  0
 42 43  1  0
 42 44  1  0
 44 45  1  0
 45 46  2  0
 45 47  1  0
 47 48  1  0
 47 49  1  0
 49 50  1  0
 50 51  2  0
 50 52  1  0
 52 53  1  0
 52 54  1  0
 54 55  1  0
 55 56  2  0
 55 57  1  0
 57 58  1  0
 57 59  1  0
 59 60  1  0
 60 61  2  0
 60 62  1  0
 62 63  1  0
 62 64  1  0
 64 65  1  0
 65 66  2  0
 18 67  1  0
 67 68  2  0
 67 69  1  0
 69 70  1  0
 70 71  1  0
 70 72  1  0
 72 73  2  0
 72 74  1  0
 74 75  1  0
 75 76  1  0
 75 77  1  0
 77 78  2  0
 77 79  1  0
 79 80  1  0
 80 81  1  0
 80 82  1  0
 82 83  2  0
 82 84  1  0
 84 85  1  0
 85 86  1  0
 85 87  1  0
 87 88  2  0
 87 89  1  0
 89 90  1  0
 90 91  1  0
 90 92  1  0
 92 93  2  0
 92 94  1  0
 94 95  1  0
 95 96  1  0
 95 97  1  0
 97 98  2  0
 97 99  1  0
 99100  1  0
100101  1  0
100102  1  0
102103  2  0
102104  1  0
104105  1  0
105106  1  0
105107  1  0
107108  2  0
107109  1  0
109110  1  0
110111  1  0
111112  1  0
111113  2  0
110114  1  0
114115  1  0
115116  1  0
 65  5  1  0
 14  9  2  0
116 11  1  0
  1117  1  0
  1118  1  0
  1119  1  0
  4120  1  0
  5121  1  6
  6122  1  0
  6123  1  0
  8124  1  0
  8125  1  0
 10126  1  0
 12127  1  0
 14128  1  0
 15129  1  0
 15130  1  0
 17131  1  0
 17132  1  0
 18133  1  6
 19134  1  0
 22135  1  1
 23136  1  0
 23137  1  0
 23138  1  0
 24139  1  0
 27140  1  6
 28141  1  0
 28142  1  0
 28143  1  0
 29144  1  0
 32145  1  1
 33146  1  0
 33147  1  0
 33148  1  0
 34149  1  0
 37150  1  1
 38151  1  0
 38152  1  0
 38153  1  0
 39154  1  0
 42155  1  6
 43156  1  0
 43157  1  0
 43158  1  0
 44159  1  0
 47160  1  6
 48161  1  0
 48162  1  0
 48163  1  0
 49164  1  0
 52165  1  6
 53166  1  0
 53167  1  0
 53168  1  0
 54169  1  0
 57170  1  1
 58171  1  0
 58172  1  0
 58173  1  0
 59174  1  0
 62175  1  6
 63176  1  0
 63177  1  0
 63178  1  0
 64179  1  0
 69180  1  0
 70181  1  1
 71182  1  0
 71183  1  0
 71184  1  0
 74185  1  0
 75186  1  1
 76187  1  0
 76188  1  0
 76189  1  0
 79190  1  0
 80191  1  6
 81192  1  0
 81193  1  0
 81194  1  0
 84195  1  0
 85196  1  1
 86197  1  0
 86198  1  0
 86199  1  0
 89200  1  0
 90201  1  1
 91202  1  0
 91203  1  0
 91204  1  0
 94205  1  0
 95206  1  6
 96207  1  0
 96208  1  0
 96209  1  0
 99210  1  0
100211  1  6
101212  1  0
101213  1  0
101214  1  0
104215  1  0
105216  1  6
106217  1  0
106218  1  0
106219  1  0
109220  1  0
110221  1  6
112222  1  0
112223  1  0
114224  1  0
114225  1  0
116226  1  0
116227  1  0
M  END
