
     RDKit          3D

227229  0  0  0  0  0  0  0  0999 V2000
    2.5804  -10.0374    1.3049 C   0  0  0  0  0  0  0  0  0  0  0  0
    2.9771   -8.8293    2.0925 C   0  0  0  0  0  0  0  0  0  0  0  0
    2.4806   -8.6374    3.2361 O   0  0  0  0  0  0  0  0  0  0  0  0
    3.9617   -7.9274    1.5632 N   0  0  0  0  0  0  0  0  0  0  0  0
    3.9707   -6.4607    1.7467 C   0  0  2  0  0  0  0  0  0  0  0  0
    2.5470   -5.9016    1.9998 C   0  0  0  0  0  0  0  0  0  0  0  0
    2.4840   -4.0677    1.9598 S   0  0  0  0  0  0  0  0  0  0  0  0
    0.7133   -3.8990    2.3959 C   0  0  0  0  0  0  0  0  0  0  0  0
   -0.1151   -3.5577    1.1851 C   0  0  0  0  0  0  0  0  0  0  0  0
   -0.3433   -4.5164    0.1908 C   0  0  0  0  0  0  0  0  0  0  0  0
   -1.1875   -4.2414   -0.8980 C   0  0  0  0  0  0  0  0  0  0  0  0
   -1.7944   -2.9831   -0.9974 C   0  0  0  0  0  0  0  0  0  0  0  0
   -1.5678   -2.0060   -0.0114 C   0  0  0  0  0  0  0  0  0  0  0  0
   -0.7323   -2.3023    1.0759 C   0  0  0  0  0  0  0  0  0  0  0  0
   -2.2445   -0.6662   -0.1206 C   0  0  0  0  0  0  0  0  0  0  0  0
   -1.4742    0.3359   -1.4464 S   0  0  0  0  0  0  0  0  0  0  0  0
   -0.0159    0.9172   -0.4854 C   0  0  0  0  0  0  0  0  0  0  0  0
    0.1088    2.4431   -0.5565 C   0  0  2  0  0  0  0  0  0  0  0  0
    1.3522    2.8735    0.0862 N   0  0  0  0  0  0  0  0  0  0  0  0
    2.3558    3.6208   -0.6040 C   0  0  0  0  0  0  0  0  0  0  0  0
    3.3643    3.0127   -1.0618 O   0  0  0  0  0  0  0  0  0  0  0  0
    2.2734    5.1208   -0.7098 C   0  0  1  0  0  0  0  0  0  0  0  0
    1.1988    5.5433   -1.7145 C   0  0  0  0  0  0  0  0  0  0  0  0
    1.9869    5.6995    0.6035 N   0  0  0  0  0  0  0  0  0  0  0  0
    2.3798    7.0328    0.9628 C   0  0  0  0  0  0  0  0  0  0  0  0
    1.4922    7.8175    1.4065 O   0  0  0  0  0  0  0  0  0  0  0  0
    3.8072    7.5267    0.8029 C   0  0  1  0  0  0  0  0  0  0  0  0
    4.0996    8.6542    1.8052 C   0  0  0  0  0  0  0  0  0  0  0  0
    4.7561    6.4354    1.0286 N   0  0  0  0  0  0  0  0  0  0  0  0
    5.7203    6.0140    0.0506 C   0  0  0  0  0  0  0  0  0  0  0  0
    5.6332    4.8533   -0.4287 O   0  0  0  0  0  0  0  0  0  0  0  0
    6.9262    6.8487   -0.3064 C   0  0  1  0  0  0  0  0  0  0  0  0
    6.5670    8.1777   -0.9738 C   0  0  0  0  0  0  0  0  0  0  0  0
    7.7296    7.0803    0.9018 N   0  0  0  0  0  0  0  0  0  0  0  0
    8.9872    6.4469    1.2048 C   0  0  0  0  0  0  0  0  0  0  0  0
    9.5256    6.6842    2.3252 O   0  0  0  0  0  0  0  0  0  0  0  0
    9.7120    5.5573    0.2200 C   0  0  1  0  0  0  0  0  0  0  0  0
   10.4758    6.4145   -0.7981 C   0  0  0  0  0  0  0  0  0  0  0  0
   10.6584    4.6744    0.9116 N   0  0  0  0  0  0  0  0  0  0  0  0
   10.5294    3.2500    0.8317 C   0  0  0  0  0  0  0  0  0  0  0  0
    9.4195    2.7094    1.0989 O   0  0  0  0  0  0  0  0  0  0  0  0
   11.6988    2.3675    0.4596 C   0  0  1  0  0  0  0  0  0  0  0  0
   12.7180    3.1157   -0.4096 C   0  0  0  0  0  0  0  0  0  0  0  0
   12.3457    1.8242    1.6572 N   0  0  0  0  0  0  0  0  0  0  0  0
   13.1966    0.6603    1.6835 C   0  0  0  0  0  0  0  0  0  0  0  0
   13.7529    0.3511    2.7730 O   0  0  0  0  0  0  0  0  0  0  0  0
   13.4548   -0.2079    0.4726 C   0  0  1  0  0  0  0  0  0  0  0  0
   14.9454   -0.2073    0.1100 C   0  0  0  0  0  0  0  0  0  0  0  0
   13.0132   -1.5811    0.7395 N   0  0  0  0  0  0  0  0  0  0  0  0
   11.8277   -2.1136    0.1288 C   0  0  0  0  0  0  0  0  0  0  0  0
   10.7737   -1.4182    0.1174 O   0  0  0  0  0  0  0  0  0  0  0  0
   11.8212   -3.4857   -0.4821 C   0  0  1  0  0  0  0  0  0  0  0  0
   13.0880   -3.7162   -1.3159 C   0  0  0  0  0  0  0  0  0  0  0  0
   11.7210   -4.5145    0.5493 N   0  0  0  0  0  0  0  0  0  0  0  0
   11.2287   -5.8336    0.2521 C   0  0  0  0  0  0  0  0  0  0  0  0
   11.8983   -6.8298    0.6348 O   0  0  0  0  0  0  0  0  0  0  0  0
    9.9372   -6.0359   -0.5088 C   0  0  1  0  0  0  0  0  0  0  0  0
   10.2233   -6.3667   -1.9796 C   0  0  0  0  0  0  0  0  0  0  0  0
    9.1443   -7.1192    0.0955 N   0  0  0  0  0  0  0  0  0  0  0  0
    7.7711   -7.4053   -0.2229 C   0  0  0  0  0  0  0  0  0  0  0  0
    7.3182   -8.5515    0.0541 O   0  0  0  0  0  0  0  0  0  0  0  0
    6.8151   -6.3534   -0.7349 C   0  0  1  0  0  0  0  0  0  0  0  0
    5.9427   -6.9468   -1.8582 C   0  0  0  0  0  0  0  0  0  0  0  0
    6.0432   -5.8362    0.4022 N   0  0  0  0  0  0  0  0  0  0  0  0
    4.6126   -5.8525    0.5191 C   0  0  0  0  0  0  0  0  0  0  0  0
    3.8958   -5.4422   -0.4324 O   0  0  0  0  0  0  0  0  0  0  0  0
   -1.0599    3.1199    0.1097 C   0  0  0  0  0  0  0  0  0  0  0  0
   -1.2879    2.9169    1.3342 O   0  0  0  0  0  0  0  0  0  0  0  0
   -1.9143    3.9865   -0.6533 N   0  0  0  0  0  0  0  0  0  0  0  0
   -2.8000    5.0100   -0.0808 C   0  0  2  0  0  0  0  0  0  0  0  0
   -2.0959    5.8143    1.0216 C   0  0  0  0  0  0  0  0  0  0  0  0
   -4.1063    4.4213    0.3894 C   0  0  0  0  0  0  0  0  0  0  0  0
   -4.3219    3.1831    0.3023 O   0  0  0  0  0  0  0  0  0  0  0  0
   -5.1462    5.3065    0.8138 N   0  0  0  0  0  0  0  0  0  0  0  0
   -6.4367    5.4110    0.1159 C   0  0  2  0  0  0  0  0  0  0  0  0
   -6.2433    5.3755   -1.4061 C   0  0  0  0  0  0  0  0  0  0  0  0
   -7.1061    6.7083    0.4990 C   0  0  0  0  0  0  0  0  0  0  0  0
   -6.4492    7.7817    0.4712 O   0  0  0  0  0  0  0  0  0  0  0  0
   -8.4754    6.7441    0.9158 N   0  0  0  0  0  0  0  0  0  0  0  0
   -9.5599    6.4997   -0.0461 C   0  0  2  0  0  0  0  0  0  0  0  0
   -9.5237    7.5796   -1.1377 C   0  0  0  0  0  0  0  0  0  0  0  0
  -10.9054    6.5438    0.6540 C   0  0  0  0  0  0  0  0  0  0  0  0
  -11.1617    7.5272    1.4004 O   0  0  0  0  0  0  0  0  0  0  0  0
  -11.9217    5.5359    0.4867 N   0  0  0  0  0  0  0  0  0  0  0  0
  -11.9157    4.4421   -0.4933 C   0  0  2  0  0  0  0  0  0  0  0  0
  -11.9012    4.9833   -1.9333 C   0  0  0  0  0  0  0  0  0  0  0  0
  -13.1561    3.5953   -0.3070 C   0  0  0  0  0  0  0  0  0  0  0  0
  -14.2771    4.1289   -0.5498 O   0  0  0  0  0  0  0  0  0  0  0  0
  -13.1365    2.2103    0.0818 N   0  0  0  0  0  0  0  0  0  0  0  0
  -12.1519    1.5154    0.9270 C   0  0  2  0  0  0  0  0  0  0  0  0
  -11.6232    2.3794    2.0817 C   0  0  0  0  0  0  0  0  0  0  0  0
  -11.0491    0.8911    0.0996 C   0  0  0  0  0  0  0  0  0  0  0  0
  -10.1044    1.6301   -0.2946 O   0  0  0  0  0  0  0  0  0  0  0  0
  -11.0040   -0.5084   -0.2597 N   0  0  0  0  0  0  0  0  0  0  0  0
  -12.0301   -1.5518   -0.1043 C   0  0  2  0  0  0  0  0  0  0  0  0
  -13.4197   -1.1151   -0.5837 C   0  0  0  0  0  0  0  0  0  0  0  0
  -12.0326   -2.1281    1.3047 C   0  0  0  0  0  0  0  0  0  0  0  0
  -12.6343   -1.5092    2.2228 O   0  0  0  0  0  0  0  0  0  0  0  0
  -11.3337   -3.3383    1.6541 N   0  0  0  0  0  0  0  0  0  0  0  0
  -10.7740   -4.2989    0.6935 C   0  0  2  0  0  0  0  0  0  0  0  0
  -11.9079   -5.1535    0.1126 C   0  0  0  0  0  0  0  0  0  0  0  0
   -9.7375   -5.2017    1.3281 C   0  0  0  0  0  0  0  0  0  0  0  0
   -9.7209   -5.3502    2.5815 O   0  0  0  0  0  0  0  0  0  0  0  0
   -8.8087   -5.9687    0.5405 N   0  0  0  0  0  0  0  0  0  0  0  0
   -8.5492   -5.7892   -0.8907 C   0  0  2  0  0  0  0  0  0  0  0  0
   -8.4649   -7.1658   -1.5663 C   0  0  0  0  0  0  0  0  0  0  0  0
   -7.2880   -4.9770   -1.0694 C   0  0  0  0  0  0  0  0  0  0  0  0
   -7.2347   -3.8148   -0.5850 O   0  0  0  0  0  0  0  0  0  0  0  0
   -6.1516   -5.5032   -1.7714 N   0  0  0  0  0  0  0  0  0  0  0  0
   -4.7896   -5.4530   -1.2318 C   0  0  1  0  0  0  0  0  0  0  0  0
   -4.7967   -5.6609    0.2660 C   0  0  0  0  0  0  0  0  0  0  0  0
   -5.2713   -6.8795    0.8349 N   0  0  0  0  0  0  0  0  0  0  0  0
   -4.4322   -4.7211    1.0253 O   0  0  0  0  0  0  0  0  0  0  0  0
   -3.9272   -6.5089   -1.9481 C   0  0  0  0  0  0  0  0  0  0  0  0
   -2.2763   -6.7460   -1.1913 S   0  0  0  0  0  0  0  0  0  0  0  0
   -1.4301   -5.3010   -1.9393 C   0  0  0  0  0  0  0  0  0  0  0  0
    3.1256  -10.0683    0.3378 H   0  0  0  0  0  0  0  0  0  0  0  0
    1.4938   -9.9948    1.0955 H   0  0  0  0  0  0  0  0  0  0  0  0
    2.8128  -10.9582    1.8798 H   0  0  0  0  0  0  0  0  0  0  0  0
    4.7048   -8.3483    0.9597 H   0  0  0  0  0  0  0  0  0  0  0  0
    4.5950   -6.2208    2.6336 H   0  0  0  0  0  0  0  0  0  0  0  0
    1.8561   -6.3177    1.2473 H   0  0  0  0  0  0  0  0  0  0  0  0
    2.2027   -6.2193    3.0068 H   0  0  0  0  0  0  0  0  0  0  0  0
    0.3022   -4.8093    2.8786 H   0  0  0  0  0  0  0  0  0  0  0  0
    0.6448   -3.0822    3.1477 H   0  0  0  0  0  0  0  0  0  0  0  0
    0.0965   -5.4962    0.2738 H   0  0  0  0  0  0  0  0  0  0  0  0
   -2.4463   -2.7667   -1.8368 H   0  0  0  0  0  0  0  0  0  0  0  0
   -0.5681   -1.5541    1.8389 H   0  0  0  0  0  0  0  0  0  0  0  0
   -3.3146   -0.8181   -0.3813 H   0  0  0  0  0  0  0  0  0  0  0  0
   -2.2360   -0.1155    0.8411 H   0  0  0  0  0  0  0  0  0  0  0  0
    0.8809    0.4570   -0.9501 H   0  0  0  0  0  0  0  0  0  0  0  0
   -0.0430    0.5885    0.5795 H   0  0  0  0  0  0  0  0  0  0  0  0
    0.1385    2.7382   -1.6295 H   0  0  0  0  0  0  0  0  0  0  0  0
    1.5705    2.5323    1.0441 H   0  0  0  0  0  0  0  0  0  0  0  0
    3.2396    5.5100   -1.0927 H   0  0  0  0  0  0  0  0  0  0  0  0
    1.2581    6.6433   -1.8865 H   0  0  0  0  0  0  0  0  0  0  0  0
    1.3524    5.0389   -2.6886 H   0  0  0  0  0  0  0  0  0  0  0  0
    0.1902    5.3046   -1.3344 H   0  0  0  0  0  0  0  0  0  0  0  0
    1.1761    5.3017    1.1308 H   0  0  0  0  0  0  0  0  0  0  0  0
    3.9073    7.9258   -0.2248 H   0  0  0  0  0  0  0  0  0  0  0  0
    3.4880    9.5506    1.5674 H   0  0  0  0  0  0  0  0  0  0  0  0
    5.1654    8.9530    1.7650 H   0  0  0  0  0  0  0  0  0  0  0  0
    3.8839    8.3166    2.8433 H   0  0  0  0  0  0  0  0  0  0  0  0
    4.6359    5.8371    1.8756 H   0  0  0  0  0  0  0  0  0  0  0  0
    7.5060    6.2920   -1.0651 H   0  0  0  0  0  0  0  0  0  0  0  0
    5.8799    8.0097   -1.8264 H   0  0  0  0  0  0  0  0  0  0  0  0
    6.1032    8.8867   -0.2650 H   0  0  0  0  0  0  0  0  0  0  0  0
    7.4960    8.6482   -1.3690 H   0  0  0  0  0  0  0  0  0  0  0  0
    7.3201    7.6956    1.6433 H   0  0  0  0  0  0  0  0  0  0  0  0
    8.9748    4.9285   -0.3179 H   0  0  0  0  0  0  0  0  0  0  0  0
   11.1980    7.0785   -0.2775 H   0  0  0  0  0  0  0  0  0  0  0  0
   11.0354    5.7554   -1.4896 H   0  0  0  0  0  0  0  0  0  0  0  0
    9.7705    7.0313   -1.3912 H   0  0  0  0  0  0  0  0  0  0  0  0
   11.5028    5.0818    1.3762 H   0  0  0  0  0  0  0  0  0  0  0  0
   11.2716    1.5350   -0.1419 H   0  0  0  0  0  0  0  0  0  0  0  0
   13.5186    2.4343   -0.7541 H   0  0  0  0  0  0  0  0  0  0  0  0
   12.2138    3.5413   -1.3047 H   0  0  0  0  0  0  0  0  0  0  0  0
   13.1973    3.9349    0.1650 H   0  0  0  0  0  0  0  0  0  0  0  0
   12.2200    2.3403    2.5616 H   0  0  0  0  0  0  0  0  0  0  0  0
   12.9204    0.1682   -0.4173 H   0  0  0  0  0  0  0  0  0  0  0  0
   15.5606   -0.5970    0.9477 H   0  0  0  0  0  0  0  0  0  0  0  0
   15.1164   -0.8459   -0.7818 H   0  0  0  0  0  0  0  0  0  0  0  0
   15.2728    0.8275   -0.1337 H   0  0  0  0  0  0  0  0  0  0  0  0
   13.6329   -2.2278    1.2770 H   0  0  0  0  0  0  0  0  0  0  0  0
   10.9462   -3.5457   -1.1714 H   0  0  0  0  0  0  0  0  0  0  0  0
   13.0281   -4.6864   -1.8528 H   0  0  0  0  0  0  0  0  0  0  0  0
   13.2137   -2.9103   -2.0677 H   0  0  0  0  0  0  0  0  0  0  0  0
   13.9880   -3.7367   -0.6654 H   0  0  0  0  0  0  0  0  0  0  0  0
   12.3603   -4.4266    1.3751 H   0  0  0  0  0  0  0  0  0  0  0  0
    9.3616   -5.0915   -0.4404 H   0  0  0  0  0  0  0  0  0  0  0  0
    9.2751   -6.4958   -2.5460 H   0  0  0  0  0  0  0  0  0  0  0  0
   10.7994   -5.5495   -2.4648 H   0  0  0  0  0  0  0  0  0  0  0  0
   10.8101   -7.3084   -2.0594 H   0  0  0  0  0  0  0  0  0  0  0  0
    9.6313   -7.8104    0.7120 H   0  0  0  0  0  0  0  0  0  0  0  0
    7.3652   -5.5068   -1.1827 H   0  0  0  0  0  0  0  0  0  0  0  0
    6.5891   -7.4166   -2.6299 H   0  0  0  0  0  0  0  0  0  0  0  0
    5.3629   -6.1469   -2.3585 H   0  0  0  0  0  0  0  0  0  0  0  0
    5.2412   -7.7103   -1.4617 H   0  0  0  0  0  0  0  0  0  0  0  0
    6.5779   -5.5575    1.2581 H   0  0  0  0  0  0  0  0  0  0  0  0
   -1.8391    3.9553   -1.6967 H   0  0  0  0  0  0  0  0  0  0  0  0
   -3.0493    5.7252   -0.8986 H   0  0  0  0  0  0  0  0  0  0  0  0
   -2.0291    5.2258    1.9618 H   0  0  0  0  0  0  0  0  0  0  0  0
   -1.0775    6.1040    0.6808 H   0  0  0  0  0  0  0  0  0  0  0  0
   -2.6568    6.7529    1.2363 H   0  0  0  0  0  0  0  0  0  0  0  0
   -4.8865    6.0239    1.5261 H   0  0  0  0  0  0  0  0  0  0  0  0
   -7.0805    4.5561    0.4133 H   0  0  0  0  0  0  0  0  0  0  0  0
   -5.8300    4.3931   -1.7202 H   0  0  0  0  0  0  0  0  0  0  0  0
   -7.2149    5.5131   -1.9262 H   0  0  0  0  0  0  0  0  0  0  0  0
   -5.5457    6.1778   -1.7332 H   0  0  0  0  0  0  0  0  0  0  0  0
   -8.6754    7.3543    1.7374 H   0  0  0  0  0  0  0  0  0  0  0  0
   -9.3941    5.5059   -0.5118 H   0  0  0  0  0  0  0  0  0  0  0  0
   -9.5254    8.5961   -0.6779 H   0  0  0  0  0  0  0  0  0  0  0  0
  -10.4036    7.5032   -1.8114 H   0  0  0  0  0  0  0  0  0  0  0  0
   -8.6042    7.4844   -1.7573 H   0  0  0  0  0  0  0  0  0  0  0  0
  -12.7416    5.6150    1.1337 H   0  0  0  0  0  0  0  0  0  0  0  0
  -11.0131    3.8293   -0.3548 H   0  0  0  0  0  0  0  0  0  0  0  0
  -10.8791    5.2759   -2.2359 H   0  0  0  0  0  0  0  0  0  0  0  0
  -12.5792    5.8575   -2.0307 H   0  0  0  0  0  0  0  0  0  0  0  0
  -12.2258    4.1949   -2.6503 H   0  0  0  0  0  0  0  0  0  0  0  0
  -14.0451    1.7110   -0.0581 H   0  0  0  0  0  0  0  0  0  0  0  0
  -12.6939    0.7041    1.4379 H   0  0  0  0  0  0  0  0  0  0  0  0
  -11.0848    1.7292    2.8051 H   0  0  0  0  0  0  0  0  0  0  0  0
  -10.9203    3.1653    1.7463 H   0  0  0  0  0  0  0  0  0  0  0  0
  -12.4736    2.8579    2.6162 H   0  0  0  0  0  0  0  0  0  0  0  0
  -10.1403   -0.8116   -0.7658 H   0  0  0  0  0  0  0  0  0  0  0  0
  -11.7584   -2.3608   -0.8080 H   0  0  0  0  0  0  0  0  0  0  0  0
  -13.3285   -0.4691   -1.4830 H   0  0  0  0  0  0  0  0  0  0  0  0
  -14.0123   -2.0096   -0.8600 H   0  0  0  0  0  0  0  0  0  0  0  0
  -13.9949   -0.5847    0.1938 H   0  0  0  0  0  0  0  0  0  0  0  0
  -11.3859   -3.6127    2.6613 H   0  0  0  0  0  0  0  0  0  0  0  0
  -10.2610   -3.7296   -0.1008 H   0  0  0  0  0  0  0  0  0  0  0  0
  -11.5188   -5.9090   -0.5993 H   0  0  0  0  0  0  0  0  0  0  0  0
  -12.6449   -4.5175   -0.4219 H   0  0  0  0  0  0  0  0  0  0  0  0
  -12.4391   -5.6827    0.9342 H   0  0  0  0  0  0  0  0  0  0  0  0
   -8.1549   -6.5940    1.0615 H   0  0  0  0  0  0  0  0  0  0  0  0
   -9.3772   -5.2477   -1.3846 H   0  0  0  0  0  0  0  0  0  0  0  0
   -8.3492   -7.0459   -2.6635 H   0  0  0  0  0  0  0  0  0  0  0  0
   -9.3984   -7.7352   -1.3711 H   0  0  0  0  0  0  0  0  0  0  0  0
   -7.6032   -7.7458   -1.1743 H   0  0  0  0  0  0  0  0  0  0  0  0
   -6.2760   -5.6938   -2.7944 H   0  0  0  0  0  0  0  0  0  0  0  0
   -4.3739   -4.4518   -1.4623 H   0  0  0  0  0  0  0  0  0  0  0  0
   -5.5239   -7.6885    0.2246 H   0  0  0  0  0  0  0  0  0  0  0  0
   -5.3045   -6.9960    1.8742 H   0  0  0  0  0  0  0  0  0  0  0  0
   -3.8167   -6.2482   -3.0205 H   0  0  0  0  0  0  0  0  0  0  0  0
   -4.4458   -7.4898   -1.9156 H   0  0  0  0  0  0  0  0  0  0  0  0
   -1.9925   -4.8933   -2.8066 H   0  0  0  0  0  0  0  0  0  0  0  0
   -0.4462   -5.6497   -2.3256 H   0  0  0  0  0  0  0  0  0  0  0  0
  1  2  1  0
  2  3  2  0
  2  4  1  0
  4  5  1  0
  5  6  1  0
  6  7  1  0
  7  8  1  0
  8  9  1  0
  9 10  1  0
 10 11  2  0
 11 12  1  0
 12 13  2  0
 13 14  1  0
 13 15  1  0
 15 16  1  0
 16 17  1  0
 17 18  1  0
 18 19  1  0
 19 20  1  0
 20 21  2  0
 20 22  1  0
 22 23  1  0
 22 24  1  0
 24 25  1  0
 25 26  2  0
 25 27  1  0
 27 28  1  0
 27 29  1  0
 29 30  1  0
 30 31  2  0
 30 32  1  0
 32 33  1  0
 32 34  1  0
 34 35  1  0
 35 36  2  0
 35 37  1  0
 37 38  1  0
 37 39  1  0
 39 40  1  0
 40 41  2  0
 40 42  1  0
 42 43  1  0
 42 44  1  0
 44 45  1  0
 45 46  2  0
 45 47  1  0
 47 48  1  0
 47 49  1  0
 49 50  1  0
 50 51  2  0
 50 52  1  0
 52 53  1  0
 52 54  1  0
 54 55  1  0
 55 56  2  0
 55 57  1  0
 57 58  1  0
 57 59  1  0
 59 60  1  0
 60 61  2  0
 60 62  1  0
 62 63  1  0
 62 64  1  0
 64 65  1  0
 65 66  2  0
 18 67  1  0
 67 68  2  0
 67 69  1  0
 69 70  1  0
 70 71  1  0
 70 72  1  0
 72 73  2  0
 72 74  1  0
 74 75  1  0
 75 76  1  0
 75 77  1  0
 77 78  2  0
 77 79  1  0
 79 80  1  0
 80 81  1  0
 80 82  1  0
 82 83  2  0
 82 84  1  0
 84 85  1  0
 85 86  1  0
 85 87  1  0
 87 88  2  0
 87 89  1  0
 89 90  1  0
 90 91  1  0
 90 92  1  0
 92 93  2  0
 92 94  1  0
 94 95  1  0
 95 96  1  0
 95 97  1  0
 97 98  2  0
 97 99  1  0
 99100  1  0
100101  1  0
100102  1  0
102103  2  0
102104  1  0
104105  1  0
105106  1  0
105107  1  0
107108  2  0
107109  1  0
109110  1  0
110111  1  0
111112  1  0
111113  2  0
110114  1  0
114115  1  0
115116  1  0
 65  5  1  0
 14  9  2  0
116 11  1  0
  1117  1  0
  1118  1  0
  1119  1  0
  4120  1  0
  5121  1  1
  6122  1  0
  6123  1  0
  8124  1  0
  8125  1  0
 10126  1  0
 12127  1  0
 14128  1  0
 15129  1  0
 15130  1  0
 17131  1  0
 17132  1  0
 18133  1  6
 19134  1  0
 22135  1  6
 23136  1  0
 23137  1  0
 23138  1  0
 24139  1  0
 27140  1  6
 28141  1  0
 28142  1  0
 28143  1  0
 29144  1  0
 32145  1  6
 33146  1  0
 33147  1  0
 33148  1  0
 34149  1  0
 37150  1  6
 38151  1  0
 38152  1  0
 38153  1  0
 39154  1  0
 42155  1  6
 43156  1  0
 43157  1  0
 43158  1  0
 44159  1  0
 47160  1  6
 48161  1  0
 48162  1  0
 48163  1  0
 49164  1  0
 52165  1  6
 53166  1  0
 53167  1  0
 53168  1  0
 54169  1  0
 57170  1  6
 58171  1  0
 58172  1  0
 58173  1  0
 59174  1  0
 62175  1  6
 63176  1  0
 63177  1  0
 63178  1  0
 64179  1  0
 69180  1  0
 70181  1  6
 71182  1  0
 71183  1  0
 71184  1  0
 74185  1  0
 75186  1  1
 76187  1  0
 76188  1  0
 76189  1  0
 79190  1  0
 80191  1  6
 81192  1  0
 81193  1  0
 81194  1  0
 84195  1  0
 85196  1  1
 86197  1  0
 86198  1  0
 86199  1  0
 89200  1  0
 90201  1  1
 91202  1  0
 91203  1  0
 91204  1  0
 94205  1  0
 95206  1  6
 96207  1  0
 96208  1  0
 96209  1  0
 99210  1  0
100211  1  6
101212  1  0
101213  1  0
101214  1  0
104215  1  0
105216  1  6
106217  1  0
106218  1  0
106219  1  0
109220  1  0
110221  1  1
112222  1  0
112223  1  0
114224  1  0
114225  1  0
116226  1  0
116227  1  0
M  END
