
     RDKit          3D

217219  0  0  0  0  0  0  0  0999 V2000
   -3.7212   -9.3089    2.0040 C   0  0  0  0  0  0  0  0  0  0  0  0
   -2.9092   -8.7974    0.8572 C   0  0  0  0  0  0  0  0  0  0  0  0
   -2.1877   -9.6059    0.2139 O   0  0  0  0  0  0  0  0  0  0  0  0
   -2.9402   -7.4057    0.5092 N   0  0  0  0  0  0  0  0  0  0  0  0
   -2.1248   -6.8398   -0.5715 C   0  0  2  0  0  0  0  0  0  0  0  0
   -1.4983   -5.5016   -0.1501 C   0  0  0  0  0  0  0  0  0  0  0  0
   -2.7413   -4.2495    0.3719 S   0  0  0  0  0  0  0  0  0  0  0  0
   -1.9204   -3.7729    1.9370 C   0  0  0  0  0  0  0  0  0  0  0  0
   -0.6175   -3.0663    1.6714 C   0  0  0  0  0  0  0  0  0  0  0  0
    0.5967   -3.5991    2.1326 C   0  0  0  0  0  0  0  0  0  0  0  0
    1.8077   -2.9401    1.8807 C   0  0  0  0  0  0  0  0  0  0  0  0
    1.8018   -1.7495    1.1423 C   0  0  0  0  0  0  0  0  0  0  0  0
    0.5882   -1.1988    0.6873 C   0  0  0  0  0  0  0  0  0  0  0  0
   -0.6157   -1.8633    0.9542 C   0  0  0  0  0  0  0  0  0  0  0  0
    0.5850    0.1078   -0.0506 C   0  0  0  0  0  0  0  0  0  0  0  0
    1.3810   -0.0931   -1.6841 S   0  0  0  0  0  0  0  0  0  0  0  0
    0.9297    1.5505   -2.3643 C   0  0  0  0  0  0  0  0  0  0  0  0
    1.5071    2.7356   -1.5634 C   0  0  2  0  0  0  0  0  0  0  0  0
    1.2516    3.9817   -2.2932 N   0  0  0  0  0  0  0  0  0  0  0  0
    0.2115    4.9146   -1.9662 C   0  0  0  0  0  0  0  0  0  0  0  0
    0.3522    6.1227   -2.3027 O   0  0  0  0  0  0  0  0  0  0  0  0
   -1.0793    4.4931   -1.3027 C   0  0  1  0  0  0  0  0  0  0  0  0
   -1.1624    5.1122    0.1037 C   0  0  0  0  0  0  0  0  0  0  0  0
   -2.2071    4.9079   -2.1489 N   0  0  0  0  0  0  0  0  0  0  0  0
   -3.5177    5.1709   -1.6372 C   0  0  0  0  0  0  0  0  0  0  0  0
   -4.2404    4.2062   -1.2578 O   0  0  0  0  0  0  0  0  0  0  0  0
   -3.9917    6.5894   -1.4410 C   0  0  1  0  0  0  0  0  0  0  0  0
   -3.2383    7.5727   -2.3408 C   0  0  0  0  0  0  0  0  0  0  0  0
   -5.4301    6.6866   -1.7175 N   0  0  0  0  0  0  0  0  0  0  0  0
   -6.3912    7.0934   -0.7345 C   0  0  0  0  0  0  0  0  0  0  0  0
   -7.3566    7.8225   -1.0827 O   0  0  0  0  0  0  0  0  0  0  0  0
   -6.2884    6.6458    0.7056 C   0  0  1  0  0  0  0  0  0  0  0  0
   -5.8037    7.8037    1.5838 C   0  0  0  0  0  0  0  0  0  0  0  0
   -7.5932    6.1599    1.1748 N   0  0  0  0  0  0  0  0  0  0  0  0
   -8.2370    5.0154    0.5811 C   0  0  0  0  0  0  0  0  0  0  0  0
   -7.5498    4.2066   -0.0995 O   0  0  0  0  0  0  0  0  0  0  0  0
   -9.7269    4.7648    0.7036 C   0  0  1  0  0  0  0  0  0  0  0  0
  -10.4507    5.7286    1.6475 C   0  0  0  0  0  0  0  0  0  0  0  0
  -10.3309    4.8370   -0.6283 N   0  0  0  0  0  0  0  0  0  0  0  0
  -11.2089    3.8264   -1.1499 C   0  0  0  0  0  0  0  0  0  0  0  0
  -11.1463    3.5328   -2.3733 O   0  0  0  0  0  0  0  0  0  0  0  0
  -12.2993    3.2140   -0.3018 C   0  0  1  0  0  0  0  0  0  0  0  0
  -13.6352    3.8886   -0.6261 C   0  0  0  0  0  0  0  0  0  0  0  0
  -12.3748    1.7678   -0.5258 N   0  0  0  0  0  0  0  0  0  0  0  0
  -11.3984    0.8714    0.0417 C   0  0  0  0  0  0  0  0  0  0  0  0
  -10.2477    1.2978    0.3303 O   0  0  0  0  0  0  0  0  0  0  0  0
  -11.7482   -0.5644    0.3439 C   0  0  1  0  0  0  0  0  0  0  0  0
  -12.9979   -0.6350    1.2255 C   0  0  0  0  0  0  0  0  0  0  0  0
  -11.9572   -1.3190   -0.8953 N   0  0  0  0  0  0  0  0  0  0  0  0
  -11.9563   -2.7596   -0.9196 C   0  0  0  0  0  0  0  0  0  0  0  0
  -12.8922   -3.3551   -1.5215 O   0  0  0  0  0  0  0  0  0  0  0  0
  -10.8765   -3.5651   -0.2242 C   0  0  1  0  0  0  0  0  0  0  0  0
  -11.3927   -4.0774    1.1257 C   0  0  0  0  0  0  0  0  0  0  0  0
  -10.4518   -4.6958   -1.0619 N   0  0  0  0  0  0  0  0  0  0  0  0
   -9.2866   -5.5090   -0.8184 C   0  0  0  0  0  0  0  0  0  0  0  0
   -9.1760   -6.5984   -1.4415 O   0  0  0  0  0  0  0  0  0  0  0  0
   -8.1642   -5.0788    0.1133 C   0  0  1  0  0  0  0  0  0  0  0  0
   -7.7184   -6.2297    1.0213 C   0  0  0  0  0  0  0  0  0  0  0  0
   -7.0405   -4.5352   -0.6532 N   0  0  0  0  0  0  0  0  0  0  0  0
   -6.4021   -5.2304   -1.7306 C   0  0  0  0  0  0  0  0  0  0  0  0
   -6.6454   -4.8786   -2.9189 O   0  0  0  0  0  0  0  0  0  0  0  0
   -5.3810   -6.3144   -1.4698 C   0  0  1  0  0  0  0  0  0  0  0  0
   -5.8238   -7.6306   -2.1203 C   0  0  0  0  0  0  0  0  0  0  0  0
   -4.0690   -5.9047   -1.9839 N   0  0  0  0  0  0  0  0  0  0  0  0
   -2.9089   -6.7375   -1.8612 C   0  0  0  0  0  0  0  0  0  0  0  0
   -2.5182   -7.3868   -2.8676 O   0  0  0  0  0  0  0  0  0  0  0  0
    2.9887    2.5646   -1.3467 C   0  0  0  0  0  0  0  0  0  0  0  0
    3.7736    2.5677   -2.3335 O   0  0  0  0  0  0  0  0  0  0  0  0
    3.5030    2.2904   -0.0406 N   0  0  0  0  0  0  0  0  0  0  0  0
    3.8468    3.3365    0.9247 C   0  0  2  0  0  0  0  0  0  0  0  0
    2.6030    4.1038    1.3845 C   0  0  0  0  0  0  0  0  0  0  0  0
    4.8865    4.2692    0.3534 C   0  0  0  0  0  0  0  0  0  0  0  0
    4.5569    5.1392   -0.4980 O   0  0  0  0  0  0  0  0  0  0  0  0
    6.2568    4.1548    0.7775 N   0  0  0  0  0  0  0  0  0  0  0  0
    7.0892    5.3043    1.1697 C   0  0  2  0  0  0  0  0  0  0  0  0
    6.3712    6.1606    2.2205 C   0  0  0  0  0  0  0  0  0  0  0  0
    7.5001    6.1336   -0.0302 C   0  0  0  0  0  0  0  0  0  0  0  0
    6.6324    6.8410   -0.6088 O   0  0  0  0  0  0  0  0  0  0  0  0
    8.8551    6.1907   -0.5190 N   0  0  0  0  0  0  0  0  0  0  0  0
   10.0042    5.4672    0.0478 C   0  0  2  0  0  0  0  0  0  0  0  0
   10.5087    6.1821    1.3060 C   0  0  0  0  0  0  0  0  0  0  0  0
   11.1200    5.3965   -0.9698 C   0  0  0  0  0  0  0  0  0  0  0  0
   11.5361    6.4630   -1.5010 O   0  0  0  0  0  0  0  0  0  0  0  0
   11.7092    4.1523   -1.3825 N   0  0  0  0  0  0  0  0  0  0  0  0
   12.0447    3.0635   -0.4587 C   0  0  2  0  0  0  0  0  0  0  0  0
   13.3132    3.4192    0.3217 C   0  0  0  0  0  0  0  0  0  0  0  0
   12.2400    1.7821   -1.2391 C   0  0  0  0  0  0  0  0  0  0  0  0
   13.0798    1.7456   -2.1761 O   0  0  0  0  0  0  0  0  0  0  0  0
   11.4302    0.6264   -0.9937 N   0  0  0  0  0  0  0  0  0  0  0  0
   11.3257   -0.0135    0.3248 C   0  0  2  0  0  0  0  0  0  0  0  0
   12.7009   -0.5144    0.7805 C   0  0  0  0  0  0  0  0  0  0  0  0
   10.2405   -1.0756    0.3030 C   0  0  0  0  0  0  0  0  0  0  0  0
    9.0486   -0.6900    0.1679 O   0  0  0  0  0  0  0  0  0  0  0  0
   10.4759   -2.4832    0.5205 N   0  0  0  0  0  0  0  0  0  0  0  0
   11.4185   -3.3088   -0.2543 C   0  0  2  0  0  0  0  0  0  0  0  0
   11.2609   -3.0583   -1.7605 C   0  0  0  0  0  0  0  0  0  0  0  0
   11.2204   -4.7666    0.0794 C   0  0  0  0  0  0  0  0  0  0  0  0
   11.8661   -5.2798    1.0356 O   0  0  0  0  0  0  0  0  0  0  0  0
   10.3260   -5.5847   -0.6778 N   0  0  0  0  0  0  0  0  0  0  0  0
    8.9352   -5.7764   -0.2774 C   0  0  2  0  0  0  0  0  0  0  0  0
    8.6030   -7.2725   -0.3097 C   0  0  0  0  0  0  0  0  0  0  0  0
    8.0305   -5.0091   -1.2142 C   0  0  0  0  0  0  0  0  0  0  0  0
    8.2515   -5.0542   -2.4554 O   0  0  0  0  0  0  0  0  0  0  0  0
    6.9380   -4.2127   -0.7310 N   0  0  0  0  0  0  0  0  0  0  0  0
    6.1052   -4.6119    0.4120 C   0  0  1  0  0  0  0  0  0  0  0  0
    6.6492   -4.0121    1.6790 C   0  0  0  0  0  0  0  0  0  0  0  0
    6.9885   -4.8482    2.7855 N   0  0  0  0  0  0  0  0  0  0  0  0
    6.8203   -2.7658    1.7677 O   0  0  0  0  0  0  0  0  0  0  0  0
    4.6470   -4.1787    0.1838 C   0  0  0  0  0  0  0  0  0  0  0  0
    3.5376   -5.0066    1.3855 S   0  0  0  0  0  0  0  0  0  0  0  0
    3.1005   -3.5342    2.3761 C   0  0  0  0  0  0  0  0  0  0  0  0
   -3.0442   -9.6922    2.7976 H   0  0  0  0  0  0  0  0  0  0  0  0
   -4.3731  -10.1393    1.6566 H   0  0  0  0  0  0  0  0  0  0  0  0
   -4.3593   -8.5065    2.4350 H   0  0  0  0  0  0  0  0  0  0  0  0
   -3.5718   -6.7818    1.0557 H   0  0  0  0  0  0  0  0  0  0  0  0
   -1.2622   -7.5208   -0.7656 H   0  0  0  0  0  0  0  0  0  0  0  0
   -0.9115   -5.0787   -0.9938 H   0  0  0  0  0  0  0  0  0  0  0  0
   -0.7813   -5.7126    0.6687 H   0  0  0  0  0  0  0  0  0  0  0  0
   -1.7716   -4.6808    2.5627 H   0  0  0  0  0  0  0  0  0  0  0  0
   -2.5908   -3.0872    2.4992 H   0  0  0  0  0  0  0  0  0  0  0  0
    0.5981   -4.5255    2.6924 H   0  0  0  0  0  0  0  0  0  0  0  0
    2.7344   -1.2339    0.9382 H   0  0  0  0  0  0  0  0  0  0  0  0
   -1.5551   -1.4371    0.6211 H   0  0  0  0  0  0  0  0  0  0  0  0
   -0.4507    0.4872   -0.1887 H   0  0  0  0  0  0  0  0  0  0  0  0
    1.1559    0.8418    0.5533 H   0  0  0  0  0  0  0  0  0  0  0  0
    1.3116    1.5929   -3.4087 H   0  0  0  0  0  0  0  0  0  0  0  0
   -0.1744    1.6292   -2.4172 H   0  0  0  0  0  0  0  0  0  0  0  0
    1.0025    2.7772   -0.5794 H   0  0  0  0  0  0  0  0  0  0  0  0
    1.8967    4.2449   -3.0748 H   0  0  0  0  0  0  0  0  0  0  0  0
   -1.1261    3.3898   -1.1936 H   0  0  0  0  0  0  0  0  0  0  0  0
   -2.0676    4.7463    0.6322 H   0  0  0  0  0  0  0  0  0  0  0  0
   -1.1951    6.2209    0.0507 H   0  0  0  0  0  0  0  0  0  0  0  0
   -0.2793    4.8067    0.7072 H   0  0  0  0  0  0  0  0  0  0  0  0
   -2.1119    4.8223   -3.1858 H   0  0  0  0  0  0  0  0  0  0  0  0
   -3.7756    6.8683   -0.3897 H   0  0  0  0  0  0  0  0  0  0  0  0
   -2.1571    7.5875   -2.0865 H   0  0  0  0  0  0  0  0  0  0  0  0
   -3.6430    8.6026   -2.2032 H   0  0  0  0  0  0  0  0  0  0  0  0
   -3.3538    7.2912   -3.4099 H   0  0  0  0  0  0  0  0  0  0  0  0
   -5.7417    6.6786   -2.7175 H   0  0  0  0  0  0  0  0  0  0  0  0
   -5.5493    5.8168    0.7904 H   0  0  0  0  0  0  0  0  0  0  0  0
   -4.8271    8.1913    1.2239 H   0  0  0  0  0  0  0  0  0  0  0  0
   -5.6777    7.4573    2.6323 H   0  0  0  0  0  0  0  0  0  0  0  0
   -6.5388    8.6376    1.5704 H   0  0  0  0  0  0  0  0  0  0  0  0
   -8.0717    6.6843    1.9417 H   0  0  0  0  0  0  0  0  0  0  0  0
   -9.8426    3.7440    1.1172 H   0  0  0  0  0  0  0  0  0  0  0  0
  -10.0518    5.6275    2.6792 H   0  0  0  0  0  0  0  0  0  0  0  0
  -11.5376    5.4933    1.6799 H   0  0  0  0  0  0  0  0  0  0  0  0
  -10.3355    6.7787    1.2971 H   0  0  0  0  0  0  0  0  0  0  0  0
  -10.0260    5.5983   -1.2771 H   0  0  0  0  0  0  0  0  0  0  0  0
  -12.1018    3.3902    0.7771 H   0  0  0  0  0  0  0  0  0  0  0  0
  -13.5696    4.9809   -0.4259 H   0  0  0  0  0  0  0  0  0  0  0  0
  -13.9083    3.7332   -1.6922 H   0  0  0  0  0  0  0  0  0  0  0  0
  -14.4376    3.4706    0.0164 H   0  0  0  0  0  0  0  0  0  0  0  0
  -13.2439    1.3592   -0.9361 H   0  0  0  0  0  0  0  0  0  0  0  0
  -10.9037   -1.0082    0.9138 H   0  0  0  0  0  0  0  0  0  0  0  0
  -13.2140   -1.6860    1.5080 H   0  0  0  0  0  0  0  0  0  0  0  0
  -13.8879   -0.2368    0.6917 H   0  0  0  0  0  0  0  0  0  0  0  0
  -12.8451   -0.0517    2.1591 H   0  0  0  0  0  0  0  0  0  0  0  0
  -12.4477   -0.8394   -1.6814 H   0  0  0  0  0  0  0  0  0  0  0  0
  -10.0076   -2.8941   -0.0645 H   0  0  0  0  0  0  0  0  0  0  0  0
  -10.6799   -4.7971    1.5766 H   0  0  0  0  0  0  0  0  0  0  0  0
  -12.3668   -4.5990    1.0025 H   0  0  0  0  0  0  0  0  0  0  0  0
  -11.5109   -3.2385    1.8385 H   0  0  0  0  0  0  0  0  0  0  0  0
  -11.0883   -5.0231   -1.8257 H   0  0  0  0  0  0  0  0  0  0  0  0
   -8.5234   -4.2863    0.7993 H   0  0  0  0  0  0  0  0  0  0  0  0
   -8.5444   -6.5078    1.7084 H   0  0  0  0  0  0  0  0  0  0  0  0
   -6.8447   -5.9108    1.6306 H   0  0  0  0  0  0  0  0  0  0  0  0
   -7.4368   -7.1264    0.4356 H   0  0  0  0  0  0  0  0  0  0  0  0
   -6.8968   -3.5001   -0.6121 H   0  0  0  0  0  0  0  0  0  0  0  0
   -5.3027   -6.4692   -0.3764 H   0  0  0  0  0  0  0  0  0  0  0  0
   -5.1144   -8.4438   -1.8606 H   0  0  0  0  0  0  0  0  0  0  0  0
   -5.8582   -7.5275   -3.2267 H   0  0  0  0  0  0  0  0  0  0  0  0
   -6.8295   -7.9246   -1.7590 H   0  0  0  0  0  0  0  0  0  0  0  0
   -4.0241   -5.1564   -2.7144 H   0  0  0  0  0  0  0  0  0  0  0  0
    3.8071    1.3128    0.1622 H   0  0  0  0  0  0  0  0  0  0  0  0
    4.2761    2.8478    1.8265 H   0  0  0  0  0  0  0  0  0  0  0  0
    2.1590    4.6742    0.5443 H   0  0  0  0  0  0  0  0  0  0  0  0
    2.8770    4.8223    2.1900 H   0  0  0  0  0  0  0  0  0  0  0  0
    1.8470    3.3961    1.7847 H   0  0  0  0  0  0  0  0  0  0  0  0
    6.5735    3.2183    1.1075 H   0  0  0  0  0  0  0  0  0  0  0  0
    7.9869    4.8931    1.6769 H   0  0  0  0  0  0  0  0  0  0  0  0
    6.0857    5.5300    3.0883 H   0  0  0  0  0  0  0  0  0  0  0  0
    5.4561    6.6266    1.8017 H   0  0  0  0  0  0  0  0  0  0  0  0
    7.0531    6.9651    2.5758 H   0  0  0  0  0  0  0  0  0  0  0  0
    9.0232    6.8270   -1.3339 H   0  0  0  0  0  0  0  0  0  0  0  0
    9.6764    4.4403    0.3033 H   0  0  0  0  0  0  0  0  0  0  0  0
   10.9108    7.1894    1.0509 H   0  0  0  0  0  0  0  0  0  0  0  0
   11.3103    5.5840    1.7863 H   0  0  0  0  0  0  0  0  0  0  0  0
    9.6968    6.3197    2.0459 H   0  0  0  0  0  0  0  0  0  0  0  0
   12.2158    4.1740   -2.2993 H   0  0  0  0  0  0  0  0  0  0  0  0
   11.2229    2.9123    0.2675 H   0  0  0  0  0  0  0  0  0  0  0  0
   13.5255    2.6505    1.0921 H   0  0  0  0  0  0  0  0  0  0  0  0
   14.1862    3.5057   -0.3605 H   0  0  0  0  0  0  0  0  0  0  0  0
   13.1778    4.3884    0.8413 H   0  0  0  0  0  0  0  0  0  0  0  0
   11.0374    0.1361   -1.8300 H   0  0  0  0  0  0  0  0  0  0  0  0
   10.9985    0.7495    1.0696 H   0  0  0  0  0  0  0  0  0  0  0  0
   13.3242    0.3428    1.1091 H   0  0  0  0  0  0  0  0  0  0  0  0
   13.2372   -1.0010   -0.0604 H   0  0  0  0  0  0  0  0  0  0  0  0
   12.6085   -1.2081    1.6434 H   0  0  0  0  0  0  0  0  0  0  0  0
    9.7420   -2.9816    1.0743 H   0  0  0  0  0  0  0  0  0  0  0  0
   12.4584   -3.0625    0.0291 H   0  0  0  0  0  0  0  0  0  0  0  0
   11.8305   -3.8167   -2.3389 H   0  0  0  0  0  0  0  0  0  0  0  0
   10.1893   -3.1104   -2.0487 H   0  0  0  0  0  0  0  0  0  0  0  0
   11.6627   -2.0645   -2.0292 H   0  0  0  0  0  0  0  0  0  0  0  0
   10.6781   -6.0231   -1.5650 H   0  0  0  0  0  0  0  0  0  0  0  0
    8.8008   -5.4178    0.7646 H   0  0  0  0  0  0  0  0  0  0  0  0
    7.5998   -7.4560    0.1265 H   0  0  0  0  0  0  0  0  0  0  0  0
    9.3443   -7.8346    0.2994 H   0  0  0  0  0  0  0  0  0  0  0  0
    8.6269   -7.6618   -1.3508 H   0  0  0  0  0  0  0  0  0  0  0  0
    6.5850   -3.4628   -1.3672 H   0  0  0  0  0  0  0  0  0  0  0  0
    6.1016   -5.7235    0.4788 H   0  0  0  0  0  0  0  0  0  0  0  0
    6.8263   -5.8791    2.7458 H   0  0  0  0  0  0  0  0  0  0  0  0
    7.3922   -4.4346    3.6543 H   0  0  0  0  0  0  0  0  0  0  0  0
    4.5559   -3.0703    0.2055 H   0  0  0  0  0  0  0  0  0  0  0  0
    4.3308   -4.5056   -0.8268 H   0  0  0  0  0  0  0  0  0  0  0  0
    2.9682   -3.8604    3.4281 H   0  0  0  0  0  0  0  0  0  0  0  0
    3.9150   -2.7865    2.3895 H   0  0  0  0  0  0  0  0  0  0  0  0
  1  2  1  0
  2  3  2  0
  2  4  1  0
  4  5  1  0
  5  6  1  0
  6  7  1  0
  7  8  1  0
  8  9  1  0
  9 10  1  0
 10 11  2  0
 11 12  1  0
 12 13  2  0
 13 14  1  0
 13 15  1  0
 15 16  1  0
 16 17  1  0
 17 18  1  0
 18 19  1  0
 19 20  1  0
 20 21  2  0
 20 22  1  0
 22 23  1  0
 22 24  1  0
 24 25  1  0
 25 26  2  0
 25 27  1  0
 27 28  1  0
 27 29  1  0
 29 30  1  0
 30 31  2  0
 30 32  1  0
 32 33  1  0
 32 34  1  0
 34 35  1  0
 35 36  2  0
 35 37  1  0
 37 38  1  0
 37 39  1  0
 39 40  1  0
 40 41  2  0
 40 42  1  0
 42 43  1  0
 42 44  1  0
 44 45  1  0
 45 46  2  0
 45 47  1  0
 47 48  1  0
 47 49  1  0
 49 50  1  0
 50 51  2  0
 50 52  1  0
 52 53  1  0
 52 54  1  0
 54 55  1  0
 55 56  2  0
 55 57  1  0
 57 58  1  0
 57 59  1  0
 59 60  1  0
 60 61  2  0
 60 62  1  0
 62 63  1  0
 62 64  1  0
 64 65  1  0
 65 66  2  0
 18 67  1  0
 67 68  2  0
 67 69  1  0
 69 70  1  0
 70 71  1  0
 70 72  1  0
 72 73  2  0
 72 74  1  0
 74 75  1  0
 75 76  1  0
 75 77  1  0
 77 78  2  0
 77 79  1  0
 79 80  1  0
 80 81  1  0
 80 82  1  0
 82 83  2  0
 82 84  1  0
 84 85  1  0
 85 86  1  0
 85 87  1  0
 87 88  2  0
 87 89  1  0
 89 90  1  0
 90 91  1  0
 90 92  1  0
 92 93  2  0
 92 94  1  0
 94 95  1  0
 95 96  1  0
 95 97  1  0
 97 98  2  0
 97 99  1  0
 99100  1  0
100101  1  0
100102  1  0
102103  2  0
102104  1  0
104105  1  0
105106  1  0
106107  1  0
106108  2  0
105109  1  0
109110  1  0
110111  1  0
 65  5  1  0
 14  9  2  0
111 11  1  0
  1112  1  0
  1113  1  0
  1114  1  0
  4115  1  0
  5116  1  6
  6117  1  0
  6118  1  0
  8119  1  0
  8120  1  0
 10121  1  0
 12122  1  0
 14123  1  0
 15124  1  0
 15125  1  0
 17126  1  0
 17127  1  0
 18128  1  1
 19129  1  0
 22130  1  1
 23131  1  0
 23132  1  0
 23133  1  0
 24134  1  0
 27135  1  1
 28136  1  0
 28137  1  0
 28138  1  0
 29139  1  0
 32140  1  6
 33141  1  0
 33142  1  0
 33143  1  0
 34144  1  0
 37145  1  1
 38146  1  0
 38147  1  0
 38148  1  0
 39149  1  0
 42150  1  1
 43151  1  0
 43152  1  0
 43153  1  0
 44154  1  0
 47155  1  1
 48156  1  0
 48157  1  0
 48158  1  0
 49159  1  0
 52160  1  1
 53161  1  0
 53162  1  0
 53163  1  0
 54164  1  0
 57165  1  1
 58166  1  0
 58167  1  0
 58168  1  0
 59169  1  0
 62170  1  1
 63171  1  0
 63172  1  0
 63173  1  0
 64174  1  0
 69175  1  0
 70176  1  1
 71177  1  0
 71178  1  0
 71179  1  0
 74180  1  0
 75181  1  1
 76182  1  0
 76183  1  0
 76184  1  0
 79185  1  0
 80186  1  1
 81187  1  0
 81188  1  0
 81189  1  0
 84190  1  0
 85191  1  1
 86192  1  0
 86193  1  0
 86194  1  0
 89195  1  0
 90196  1  1
 91197  1  0
 91198  1  0
 91199  1  0
 94200  1  0
 95201  1  1
 96202  1  0
 96203  1  0
 96204  1  0
 99205  1  0
100206  1  1
101207  1  0
101208  1  0
101209  1  0
104210  1  0
105211  1  1
107212  1  0
107213  1  0
109214  1  0
109215  1  0
111216  1  0
111217  1  0
M  END
