
     RDKit          3D

157159  0  0  0  0  0  0  0  0999 V2000
  -10.9184   -0.5295    2.1815 C   0  0  0  0  0  0  0  0  0  0  0  0
  -10.0572   -1.2265    1.1759 C   0  0  0  0  0  0  0  0  0  0  0  0
   -9.7939   -2.4451    1.3450 O   0  0  0  0  0  0  0  0  0  0  0  0
   -9.5212   -0.5137    0.0492 N   0  0  0  0  0  0  0  0  0  0  0  0
   -8.7462   -1.1754   -1.0069 C   0  0  2  0  0  0  0  0  0  0  0  0
   -7.3943   -1.7157   -0.4834 C   0  0  0  0  0  0  0  0  0  0  0  0
   -7.1086   -3.4285   -1.0921 S   0  0  0  0  0  0  0  0  0  0  0  0
   -5.9447   -3.9976    0.2120 C   0  0  0  0  0  0  0  0  0  0  0  0
   -4.5624   -3.4805   -0.0634 C   0  0  0  0  0  0  0  0  0  0  0  0
   -3.6097   -4.2703   -0.7126 C   0  0  0  0  0  0  0  0  0  0  0  0
   -2.3804   -3.7171   -1.1037 C   0  0  0  0  0  0  0  0  0  0  0  0
   -2.1188   -2.3572   -0.8527 C   0  0  0  0  0  0  0  0  0  0  0  0
   -3.0599   -1.5665   -0.1738 C   0  0  0  0  0  0  0  0  0  0  0  0
   -4.2482   -2.1608    0.2683 C   0  0  0  0  0  0  0  0  0  0  0  0
   -2.9173   -0.0658   -0.1573 C   0  0  0  0  0  0  0  0  0  0  0  0
   -3.0620    0.6605    1.5157 S   0  0  0  0  0  0  0  0  0  0  0  0
   -4.8344    1.1670    1.4788 C   0  0  0  0  0  0  0  0  0  0  0  0
   -5.1206    2.5281    0.8285 C   0  0  2  0  0  0  0  0  0  0  0  0
   -5.0703    2.4393   -0.6346 N   0  0  0  0  0  0  0  0  0  0  0  0
   -6.2208    2.3627   -1.4994 C   0  0  0  0  0  0  0  0  0  0  0  0
   -6.1152    2.7968   -2.6813 O   0  0  0  0  0  0  0  0  0  0  0  0
   -7.5676    1.8382   -1.0307 C   0  0  1  0  0  0  0  0  0  0  0  0
   -8.4503    3.0201   -0.6020 C   0  0  0  0  0  0  0  0  0  0  0  0
   -8.2293    1.1288   -2.1423 N   0  0  0  0  0  0  0  0  0  0  0  0
   -8.5599   -0.2745   -2.2150 C   0  0  0  0  0  0  0  0  0  0  0  0
   -8.7470   -0.7807   -3.3564 O   0  0  0  0  0  0  0  0  0  0  0  0
   -4.2166    3.6214    1.3521 C   0  0  0  0  0  0  0  0  0  0  0  0
   -4.3130    3.9798    2.5584 O   0  0  0  0  0  0  0  0  0  0  0  0
   -3.3013    4.3005    0.4834 N   0  0  0  0  0  0  0  0  0  0  0  0
   -3.2371    5.7563    0.3252 C   0  0  2  0  0  0  0  0  0  0  0  0
   -4.5782    6.4379    0.6349 C   0  0  0  0  0  0  0  0  0  0  0  0
   -2.8412    6.0615   -1.1062 C   0  0  0  0  0  0  0  0  0  0  0  0
   -3.6237    5.7081   -2.0292 O   0  0  0  0  0  0  0  0  0  0  0  0
   -1.6062    6.7030   -1.4730 N   0  0  0  0  0  0  0  0  0  0  0  0
   -0.6328    7.2641   -0.5264 C   0  0  2  0  0  0  0  0  0  0  0  0
   -1.1297    8.6124    0.0107 C   0  0  0  0  0  0  0  0  0  0  0  0
    0.7114    7.4113   -1.1928 C   0  0  0  0  0  0  0  0  0  0  0  0
    0.8748    8.2728   -2.1043 O   0  0  0  0  0  0  0  0  0  0  0  0
    1.7619    6.4819   -0.8998 N   0  0  0  0  0  0  0  0  0  0  0  0
    2.7736    6.6948    0.1458 C   0  0  2  0  0  0  0  0  0  0  0  0
    2.2120    7.4357    1.3654 C   0  0  0  0  0  0  0  0  0  0  0  0
    3.9614    7.4465   -0.4161 C   0  0  0  0  0  0  0  0  0  0  0  0
    3.7589    8.3638   -1.2546 O   0  0  0  0  0  0  0  0  0  0  0  0
    5.3132    7.1808    0.0109 N   0  0  0  0  0  0  0  0  0  0  0  0
    5.7195    6.0295    0.8283 C   0  0  2  0  0  0  0  0  0  0  0  0
    7.0834    6.3052    1.4670 C   0  0  0  0  0  0  0  0  0  0  0  0
    5.7873    4.7808   -0.0168 C   0  0  0  0  0  0  0  0  0  0  0  0
    5.5957    4.8416   -1.2634 O   0  0  0  0  0  0  0  0  0  0  0  0
    6.0660    3.5124    0.5877 N   0  0  0  0  0  0  0  0  0  0  0  0
    7.3753    2.8602    0.4400 C   0  0  2  0  0  0  0  0  0  0  0  0
    7.8147    2.7851   -1.0291 C   0  0  0  0  0  0  0  0  0  0  0  0
    7.3515    1.4706    1.0302 C   0  0  0  0  0  0  0  0  0  0  0  0
    8.1825    1.1758    1.9261 O   0  0  0  0  0  0  0  0  0  0  0  0
    6.4256    0.4828    0.5416 N   0  0  0  0  0  0  0  0  0  0  0  0
    6.7457   -0.9235    0.2283 C   0  0  2  0  0  0  0  0  0  0  0  0
    8.1233   -1.3753    0.7347 C   0  0  0  0  0  0  0  0  0  0  0  0
    6.6569   -1.1355   -1.2638 C   0  0  0  0  0  0  0  0  0  0  0  0
    7.1781   -0.2922   -2.0395 O   0  0  0  0  0  0  0  0  0  0  0  0
    5.9568   -2.2522   -1.8194 N   0  0  0  0  0  0  0  0  0  0  0  0
    6.1467   -3.6240   -1.3344 C   0  0  2  0  0  0  0  0  0  0  0  0
    7.1621   -4.3328   -2.2383 C   0  0  0  0  0  0  0  0  0  0  0  0
    4.8369   -4.3793   -1.3065 C   0  0  0  0  0  0  0  0  0  0  0  0
    3.8107   -3.8718   -1.8389 O   0  0  0  0  0  0  0  0  0  0  0  0
    4.7281   -5.6900   -0.7255 N   0  0  0  0  0  0  0  0  0  0  0  0
    5.6479   -6.2501    0.2702 C   0  0  2  0  0  0  0  0  0  0  0  0
    5.8912   -7.7341   -0.0154 C   0  0  0  0  0  0  0  0  0  0  0  0
    5.1738   -6.0490    1.6934 C   0  0  0  0  0  0  0  0  0  0  0  0
    5.9786   -6.3320    2.6231 O   0  0  0  0  0  0  0  0  0  0  0  0
    3.9120   -5.4539    2.0503 N   0  0  0  0  0  0  0  0  0  0  0  0
    2.5908   -5.8445    1.5244 C   0  0  2  0  0  0  0  0  0  0  0  0
    1.4968   -5.3854    2.5002 C   0  0  0  0  0  0  0  0  0  0  0  0
    2.4850   -7.3392    1.3271 C   0  0  0  0  0  0  0  0  0  0  0  0
    2.7946   -8.1047    2.2803 O   0  0  0  0  0  0  0  0  0  0  0  0
    2.1318   -7.9215    0.0616 N   0  0  0  0  0  0  0  0  0  0  0  0
    0.8493   -7.7649   -0.6490 C   0  0  1  0  0  0  0  0  0  0  0  0
   -0.3486   -8.1358    0.2021 C   0  0  0  0  0  0  0  0  0  0  0  0
   -1.6328   -8.2550   -0.4089 N   0  0  0  0  0  0  0  0  0  0  0  0
   -0.2289   -8.3557    1.4368 O   0  0  0  0  0  0  0  0  0  0  0  0
    0.7124   -6.4005   -1.3663 C   0  0  0  0  0  0  0  0  0  0  0  0
   -0.2008   -5.1434   -0.3874 S   0  0  0  0  0  0  0  0  0  0  0  0
   -1.3172   -4.5851   -1.7136 C   0  0  0  0  0  0  0  0  0  0  0  0
  -11.9262   -0.9940    2.1947 H   0  0  0  0  0  0  0  0  0  0  0  0
  -11.0291    0.5492    1.9364 H   0  0  0  0  0  0  0  0  0  0  0  0
  -10.4618   -0.6188    3.1883 H   0  0  0  0  0  0  0  0  0  0  0  0
   -9.8435    0.4678   -0.0847 H   0  0  0  0  0  0  0  0  0  0  0  0
   -9.3599   -2.0400   -1.3454 H   0  0  0  0  0  0  0  0  0  0  0  0
   -7.3769   -1.7044    0.6225 H   0  0  0  0  0  0  0  0  0  0  0  0
   -6.5584   -1.0720   -0.8349 H   0  0  0  0  0  0  0  0  0  0  0  0
   -6.2912   -3.6891    1.2195 H   0  0  0  0  0  0  0  0  0  0  0  0
   -5.9415   -5.1102    0.1982 H   0  0  0  0  0  0  0  0  0  0  0  0
   -3.8288   -5.3072   -0.9428 H   0  0  0  0  0  0  0  0  0  0  0  0
   -1.1961   -1.9178   -1.2091 H   0  0  0  0  0  0  0  0  0  0  0  0
   -4.9615   -1.6016    0.8378 H   0  0  0  0  0  0  0  0  0  0  0  0
   -1.9209    0.2278   -0.5464 H   0  0  0  0  0  0  0  0  0  0  0  0
   -3.6685    0.3413   -0.8522 H   0  0  0  0  0  0  0  0  0  0  0  0
   -5.1750    1.2058    2.5369 H   0  0  0  0  0  0  0  0  0  0  0  0
   -5.4658    0.4149    0.9776 H   0  0  0  0  0  0  0  0  0  0  0  0
   -6.1479    2.8135    1.1375 H   0  0  0  0  0  0  0  0  0  0  0  0
   -4.1468    2.5189   -1.1220 H   0  0  0  0  0  0  0  0  0  0  0  0
   -7.4177    1.1553   -0.1755 H   0  0  0  0  0  0  0  0  0  0  0  0
   -9.4337    2.6615   -0.2442 H   0  0  0  0  0  0  0  0  0  0  0  0
   -7.9880    3.5991    0.2209 H   0  0  0  0  0  0  0  0  0  0  0  0
   -8.6229    3.7067   -1.4557 H   0  0  0  0  0  0  0  0  0  0  0  0
   -8.4190    1.6839   -3.0077 H   0  0  0  0  0  0  0  0  0  0  0  0
   -2.5898    3.7155   -0.0025 H   0  0  0  0  0  0  0  0  0  0  0  0
   -2.4959    6.1465    1.0474 H   0  0  0  0  0  0  0  0  0  0  0  0
   -4.8025    6.3867    1.7188 H   0  0  0  0  0  0  0  0  0  0  0  0
   -5.4087    5.9648    0.0675 H   0  0  0  0  0  0  0  0  0  0  0  0
   -4.5305    7.5168    0.3593 H   0  0  0  0  0  0  0  0  0  0  0  0
   -1.4029    6.7802   -2.4967 H   0  0  0  0  0  0  0  0  0  0  0  0
   -0.4969    6.5614    0.3199 H   0  0  0  0  0  0  0  0  0  0  0  0
   -0.4011    9.0254    0.7345 H   0  0  0  0  0  0  0  0  0  0  0  0
   -1.2693    9.3341   -0.8221 H   0  0  0  0  0  0  0  0  0  0  0  0
   -2.1022    8.4869    0.5277 H   0  0  0  0  0  0  0  0  0  0  0  0
    2.0049    5.8080   -1.6611 H   0  0  0  0  0  0  0  0  0  0  0  0
    3.0889    5.6852    0.4857 H   0  0  0  0  0  0  0  0  0  0  0  0
    2.9870    7.4875    2.1593 H   0  0  0  0  0  0  0  0  0  0  0  0
    1.9180    8.4711    1.1013 H   0  0  0  0  0  0  0  0  0  0  0  0
    1.3422    6.8905    1.7724 H   0  0  0  0  0  0  0  0  0  0  0  0
    6.0548    7.8158   -0.3630 H   0  0  0  0  0  0  0  0  0  0  0  0
    4.9938    5.8829    1.6548 H   0  0  0  0  0  0  0  0  0  0  0  0
    7.8780    6.3661    0.6931 H   0  0  0  0  0  0  0  0  0  0  0  0
    7.0529    7.2610    2.0298 H   0  0  0  0  0  0  0  0  0  0  0  0
    7.3405    5.4938    2.1883 H   0  0  0  0  0  0  0  0  0  0  0  0
    5.3947    3.1597    1.3157 H   0  0  0  0  0  0  0  0  0  0  0  0
    8.1330    3.4656    0.9857 H   0  0  0  0  0  0  0  0  0  0  0  0
    8.0482    3.8011   -1.4084 H   0  0  0  0  0  0  0  0  0  0  0  0
    8.7376    2.1713   -1.1202 H   0  0  0  0  0  0  0  0  0  0  0  0
    7.0143    2.3379   -1.6572 H   0  0  0  0  0  0  0  0  0  0  0  0
    5.5194    0.8408    0.1717 H   0  0  0  0  0  0  0  0  0  0  0  0
    5.9737   -1.5537    0.7168 H   0  0  0  0  0  0  0  0  0  0  0  0
    8.1430   -1.3615    1.8458 H   0  0  0  0  0  0  0  0  0  0  0  0
    8.3395   -2.4172    0.4189 H   0  0  0  0  0  0  0  0  0  0  0  0
    8.9309   -0.7299    0.3331 H   0  0  0  0  0  0  0  0  0  0  0  0
    5.5638   -2.1363   -2.7879 H   0  0  0  0  0  0  0  0  0  0  0  0
    6.5344   -3.5975   -0.3021 H   0  0  0  0  0  0  0  0  0  0  0  0
    7.3156   -5.3918   -1.9335 H   0  0  0  0  0  0  0  0  0  0  0  0
    6.8221   -4.3177   -3.2927 H   0  0  0  0  0  0  0  0  0  0  0  0
    8.1423   -3.8117   -2.1730 H   0  0  0  0  0  0  0  0  0  0  0  0
    3.9027   -6.2625   -1.0006 H   0  0  0  0  0  0  0  0  0  0  0  0
    6.6372   -5.7585    0.1922 H   0  0  0  0  0  0  0  0  0  0  0  0
    6.6618   -8.1369    0.6771 H   0  0  0  0  0  0  0  0  0  0  0  0
    4.9618   -8.3216    0.1129 H   0  0  0  0  0  0  0  0  0  0  0  0
    6.2635   -7.8648   -1.0533 H   0  0  0  0  0  0  0  0  0  0  0  0
    3.9345   -4.8717    2.9218 H   0  0  0  0  0  0  0  0  0  0  0  0
    2.4390   -5.3273    0.5595 H   0  0  0  0  0  0  0  0  0  0  0  0
    0.5154   -5.8265    2.2412 H   0  0  0  0  0  0  0  0  0  0  0  0
    1.7498   -5.6888    3.5367 H   0  0  0  0  0  0  0  0  0  0  0  0
    1.4106   -4.2769    2.4705 H   0  0  0  0  0  0  0  0  0  0  0  0
    2.7123   -8.7353   -0.2479 H   0  0  0  0  0  0  0  0  0  0  0  0
    0.8606   -8.5214   -1.4680 H   0  0  0  0  0  0  0  0  0  0  0  0
   -1.7648   -8.0534   -1.4232 H   0  0  0  0  0  0  0  0  0  0  0  0
   -2.4746   -8.4340    0.1868 H   0  0  0  0  0  0  0  0  0  0  0  0
    1.7086   -5.9877   -1.6215 H   0  0  0  0  0  0  0  0  0  0  0  0
    0.2011   -6.5693   -2.3346 H   0  0  0  0  0  0  0  0  0  0  0  0
   -0.7382   -4.0148   -2.4715 H   0  0  0  0  0  0  0  0  0  0  0  0
   -1.7855   -5.4596   -2.2105 H   0  0  0  0  0  0  0  0  0  0  0  0
  1  2  1  0
  2  3  2  0
  2  4  1  0
  4  5  1  0
  5  6  1  0
  6  7  1  0
  7  8  1  0
  8  9  1  0
  9 10  1  0
 10 11  2  0
 11 12  1  0
 12 13  2  0
 13 14  1  0
 13 15  1  0
 15 16  1  0
 16 17  1  0
 17 18  1  0
 18 19  1  0
 19 20  1  0
 20 21  2  0
 20 22  1  0
 22 23  1  0
 22 24  1  0
 24 25  1  0
 25 26  2  0
 18 27  1  0
 27 28  2  0
 27 29  1  0
 29 30  1  0
 30 31  1  0
 30 32  1  0
 32 33  2  0
 32 34  1  0
 34 35  1  0
 35 36  1  0
 35 37  1  0
 37 38  2  0
 37 39  1  0
 39 40  1  0
 40 41  1  0
 40 42  1  0
 42 43  2  0
 42 44  1  0
 44 45  1  0
 45 46  1  0
 45 47  1  0
 47 48  2  0
 47 49  1  0
 49 50  1  0
 50 51  1  0
 50 52  1  0
 52 53  2  0
 52 54  1  0
 54 55  1  0
 55 56  1  0
 55 57  1  0
 57 58  2  0
 57 59  1  0
 59 60  1  0
 60 61  1  0
 60 62  1  0
 62 63  2  0
 62 64  1  0
 64 65  1  0
 65 66  1  0
 65 67  1  0
 67 68  2  0
 67 69  1  0
 69 70  1  0
 70 71  1  0
 70 72  1  0
 72 73  2  0
 72 74  1  0
 74 75  1  0
 75 76  1  0
 76 77  1  0
 76 78  2  0
 75 79  1  0
 79 80  1  0
 80 81  1  0
 25  5  1  0
 14  9  2  0
 81 11  1  0
  1 82  1  0
  1 83  1  0
  1 84  1  0
  4 85  1  0
  5 86  1  6
  6 87  1  0
  6 88  1  0
  8 89  1  0
  8 90  1  0
 10 91  1  0
 12 92  1  0
 14 93  1  0
 15 94  1  0
 15 95  1  0
 17 96  1  0
 17 97  1  0
 18 98  1  6
 19 99  1  0
 22100  1  1
 23101  1  0
 23102  1  0
 23103  1  0
 24104  1  0
 29105  1  0
 30106  1  1
 31107  1  0
 31108  1  0
 31109  1  0
 34110  1  0
 35111  1  1
 36112  1  0
 36113  1  0
 36114  1  0
 39115  1  0
 40116  1  1
 41117  1  0
 41118  1  0
 41119  1  0
 44120  1  0
 45121  1  1
 46122  1  0
 46123  1  0
 46124  1  0
 49125  1  0
 50126  1  1
 51127  1  0
 51128  1  0
 51129  1  0
 54130  1  0
 55131  1  1
 56132  1  0
 56133  1  0
 56134  1  0
 59135  1  0
 60136  1  1
 61137  1  0
 61138  1  0
 61139  1  0
 64140  1  0
 65141  1  1
 66142  1  0
 66143  1  0
 66144  1  0
 69145  1  0
 70146  1  6
 71147  1  0
 71148  1  0
 71149  1  0
 74150  1  0
 75151  1  6
 77152  1  0
 77153  1  0
 79154  1  0
 79155  1  0
 81156  1  0
 81157  1  0
M  END
