
     RDKit          3D

247249  0  0  0  0  0  0  0  0999 V2000
    4.0339   -9.6983   -1.1464 C   0  0  0  0  0  0  0  0  0  0  0  0
    4.5711   -8.3292   -1.4174 C   0  0  0  0  0  0  0  0  0  0  0  0
    4.7651   -7.9691   -2.6091 O   0  0  0  0  0  0  0  0  0  0  0  0
    4.8706   -7.4524   -0.3131 N   0  0  0  0  0  0  0  0  0  0  0  0
    5.4393   -6.1013   -0.4079 C   0  0  2  0  0  0  0  0  0  0  0  0
    4.3431   -5.0328   -0.6154 C   0  0  0  0  0  0  0  0  0  0  0  0
    3.3223   -5.3138   -2.1090 S   0  0  0  0  0  0  0  0  0  0  0  0
    2.7180   -3.5932   -2.2651 C   0  0  0  0  0  0  0  0  0  0  0  0
    1.8567   -3.2051   -1.0937 C   0  0  0  0  0  0  0  0  0  0  0  0
    0.6413   -3.8677   -0.8640 C   0  0  0  0  0  0  0  0  0  0  0  0
   -0.1672   -3.5155    0.2284 C   0  0  0  0  0  0  0  0  0  0  0  0
    0.2723   -2.5163    1.1133 C   0  0  0  0  0  0  0  0  0  0  0  0
    1.4860   -1.8467    0.8929 C   0  0  0  0  0  0  0  0  0  0  0  0
    2.2770   -2.2055   -0.2090 C   0  0  0  0  0  0  0  0  0  0  0  0
    1.9660   -0.8100    1.8730 C   0  0  0  0  0  0  0  0  0  0  0  0
    2.4595    0.7382    1.0336 S   0  0  0  0  0  0  0  0  0  0  0  0
    0.7672    1.2365    0.5560 C   0  0  0  0  0  0  0  0  0  0  0  0
    0.7984    2.5600   -0.2246 C   0  0  2  0  0  0  0  0  0  0  0  0
    1.3048    3.6411    0.6276 N   0  0  0  0  0  0  0  0  0  0  0  0
    2.5799    4.2481    0.3807 C   0  0  0  0  0  0  0  0  0  0  0  0
    3.5740    3.8686    1.0571 O   0  0  0  0  0  0  0  0  0  0  0  0
    2.7365    5.4269   -0.5419 C   0  0  1  0  0  0  0  0  0  0  0  0
    1.5788    5.5652   -1.5361 C   0  0  0  0  0  0  0  0  0  0  0  0
    2.8396    6.6495    0.2571 N   0  0  0  0  0  0  0  0  0  0  0  0
    4.0191    7.4521    0.4395 C   0  0  0  0  0  0  0  0  0  0  0  0
    3.9459    8.4436    1.2168 O   0  0  0  0  0  0  0  0  0  0  0  0
    5.3156    7.1851   -0.3100 C   0  0  1  0  0  0  0  0  0  0  0  0
    5.1908    7.7122   -1.7447 C   0  0  0  0  0  0  0  0  0  0  0  0
    6.4558    7.8417    0.3521 N   0  0  0  0  0  0  0  0  0  0  0  0
    7.8163    7.3671    0.3416 C   0  0  0  0  0  0  0  0  0  0  0  0
    8.6547    7.9428    1.0867 O   0  0  0  0  0  0  0  0  0  0  0  0
    8.2926    6.2344   -0.5483 C   0  0  1  0  0  0  0  0  0  0  0  0
    9.4415    6.7004   -1.4474 C   0  0  0  0  0  0  0  0  0  0  0  0
    8.6744    5.0643    0.2506 N   0  0  0  0  0  0  0  0  0  0  0  0
    9.6552    5.0990    1.2918 C   0  0  0  0  0  0  0  0  0  0  0  0
    9.2733    5.2078    2.4875 O   0  0  0  0  0  0  0  0  0  0  0  0
   11.1063    4.8383    0.9771 C   0  0  1  0  0  0  0  0  0  0  0  0
   12.0396    5.4099    2.0484 C   0  0  0  0  0  0  0  0  0  0  0  0
   11.3258    3.3967    0.8425 N   0  0  0  0  0  0  0  0  0  0  0  0
   11.7169    2.8077   -0.4009 C   0  0  0  0  0  0  0  0  0  0  0  0
   10.8713    2.1577   -1.0739 O   0  0  0  0  0  0  0  0  0  0  0  0
   13.1398    2.9046   -0.9009 C   0  0  1  0  0  0  0  0  0  0  0  0
   13.3762    4.2226   -1.6446 C   0  0  0  0  0  0  0  0  0  0  0  0
   14.0860    2.7622    0.2119 N   0  0  0  0  0  0  0  0  0  0  0  0
   14.3776    1.5178    0.8749 C   0  0  0  0  0  0  0  0  0  0  0  0
   15.1741    1.5320    1.8515 O   0  0  0  0  0  0  0  0  0  0  0  0
   13.8438    0.1912    0.3685 C   0  0  1  0  0  0  0  0  0  0  0  0
   14.8500   -0.4107   -0.6182 C   0  0  0  0  0  0  0  0  0  0  0  0
   13.5933   -0.7445    1.4795 N   0  0  0  0  0  0  0  0  0  0  0  0
   12.8961   -2.0030    1.3628 C   0  0  0  0  0  0  0  0  0  0  0  0
   13.0175   -2.8375    2.3005 O   0  0  0  0  0  0  0  0  0  0  0  0
   11.9886   -2.3509    0.1968 C   0  0  1  0  0  0  0  0  0  0  0  0
   12.4471   -3.6254   -0.5206 C   0  0  0  0  0  0  0  0  0  0  0  0
   10.5867   -2.4470    0.6317 N   0  0  0  0  0  0  0  0  0  0  0  0
   10.1269   -3.2792    1.7074 C   0  0  0  0  0  0  0  0  0  0  0  0
    9.7172   -2.7306    2.7662 O   0  0  0  0  0  0  0  0  0  0  0  0
   10.0322   -4.7797    1.5616 C   0  0  1  0  0  0  0  0  0  0  0  0
   11.0031   -5.4836    2.5190 C   0  0  0  0  0  0  0  0  0  0  0  0
    8.6653   -5.2367    1.8427 N   0  0  0  0  0  0  0  0  0  0  0  0
    8.1688   -6.5130    1.3995 C   0  0  0  0  0  0  0  0  0  0  0  0
    7.3986   -7.1615    2.1602 O   0  0  0  0  0  0  0  0  0  0  0  0
    8.5010   -7.0505    0.0237 C   0  0  1  0  0  0  0  0  0  0  0  0
    8.0916   -8.5120   -0.1900 C   0  0  0  0  0  0  0  0  0  0  0  0
    7.9669   -6.1794   -1.0342 N   0  0  0  0  0  0  0  0  0  0  0  0
    6.5814   -5.9994   -1.4032 C   0  0  0  0  0  0  0  0  0  0  0  0
    6.3261   -5.6837   -2.5972 O   0  0  0  0  0  0  0  0  0  0  0  0
   -0.5780    2.9011   -0.7289 C   0  0  0  0  0  0  0  0  0  0  0  0
   -0.7864    2.9883   -1.9685 O   0  0  0  0  0  0  0  0  0  0  0  0
   -1.6702    3.0640    0.1757 N   0  0  0  0  0  0  0  0  0  0  0  0
   -1.9973    4.3821    0.7271 C   0  0  2  0  0  0  0  0  0  0  0  0
   -2.5881    4.2214    2.1288 C   0  0  0  0  0  0  0  0  0  0  0  0
   -2.9732    5.1091   -0.1619 C   0  0  0  0  0  0  0  0  0  0  0  0
   -3.7214    4.4549   -0.9416 O   0  0  0  0  0  0  0  0  0  0  0  0
   -2.9851    6.5467   -0.1708 N   0  0  0  0  0  0  0  0  0  0  0  0
   -4.1760    7.4046   -0.2281 C   0  0  2  0  0  0  0  0  0  0  0  0
   -4.4195    8.0285    1.1532 C   0  0  0  0  0  0  0  0  0  0  0  0
   -5.4056    6.7090   -0.7794 C   0  0  0  0  0  0  0  0  0  0  0  0
   -5.4661    6.4293   -2.0044 O   0  0  0  0  0  0  0  0  0  0  0  0
   -6.5344    6.4271    0.0681 N   0  0  0  0  0  0  0  0  0  0  0  0
   -7.9122    6.8500   -0.2425 C   0  0  2  0  0  0  0  0  0  0  0  0
   -7.9296    8.1686   -1.0349 C   0  0  0  0  0  0  0  0  0  0  0  0
   -8.6714    7.0263    1.0518 C   0  0  0  0  0  0  0  0  0  0  0  0
   -8.2612    7.8774    1.8884 O   0  0  0  0  0  0  0  0  0  0  0  0
   -9.7824    6.1933    1.4052 N   0  0  0  0  0  0  0  0  0  0  0  0
  -10.9703    6.0222    0.5566 C   0  0  2  0  0  0  0  0  0  0  0  0
  -11.6223    7.3896    0.2980 C   0  0  0  0  0  0  0  0  0  0  0  0
  -11.9822    5.1275    1.2454 C   0  0  0  0  0  0  0  0  0  0  0  0
  -12.3373    5.4209    2.4191 O   0  0  0  0  0  0  0  0  0  0  0  0
  -12.5786    3.9731    0.6219 N   0  0  0  0  0  0  0  0  0  0  0  0
  -12.4920    3.6036   -0.7974 C   0  0  2  0  0  0  0  0  0  0  0  0
  -13.1507    4.6691   -1.6893 C   0  0  0  0  0  0  0  0  0  0  0  0
  -13.1897    2.2811   -1.0199 C   0  0  0  0  0  0  0  0  0  0  0  0
  -14.4417    2.2109   -0.8524 O   0  0  0  0  0  0  0  0  0  0  0  0
  -12.4844    1.1068   -1.4473 N   0  0  0  0  0  0  0  0  0  0  0  0
  -11.1245    0.7784   -1.0175 C   0  0  2  0  0  0  0  0  0  0  0  0
  -10.1787    0.8486   -2.2206 C   0  0  0  0  0  0  0  0  0  0  0  0
  -11.1220   -0.5837   -0.3632 C   0  0  0  0  0  0  0  0  0  0  0  0
  -10.5400   -1.5608   -0.9028 O   0  0  0  0  0  0  0  0  0  0  0  0
  -11.7799   -0.7676    0.8929 N   0  0  0  0  0  0  0  0  0  0  0  0
  -13.1574   -1.2638    0.9556 C   0  0  2  0  0  0  0  0  0  0  0  0
  -13.7997   -0.8728    2.2907 C   0  0  0  0  0  0  0  0  0  0  0  0
  -13.1800   -2.7580    0.7681 C   0  0  0  0  0  0  0  0  0  0  0  0
  -14.0377   -3.2732   -0.0063 O   0  0  0  0  0  0  0  0  0  0  0  0
  -12.2710   -3.5964    1.4887 N   0  0  0  0  0  0  0  0  0  0  0  0
  -11.5991   -4.7264    0.8254 C   0  0  2  0  0  0  0  0  0  0  0  0
  -12.5060   -5.9620    0.8027 C   0  0  0  0  0  0  0  0  0  0  0  0
  -10.3023   -5.0388    1.5338 C   0  0  0  0  0  0  0  0  0  0  0  0
  -10.3371   -5.4336    2.7324 O   0  0  0  0  0  0  0  0  0  0  0  0
   -9.0238   -4.7614    0.9390 N   0  0  0  0  0  0  0  0  0  0  0  0
   -8.4620   -5.4225   -0.2462 C   0  0  2  0  0  0  0  0  0  0  0  0
   -9.1778   -5.0094   -1.5331 C   0  0  0  0  0  0  0  0  0  0  0  0
   -8.4285   -6.9352   -0.0970 C   0  0  0  0  0  0  0  0  0  0  0  0
   -9.4076   -7.5212    0.4380 O   0  0  0  0  0  0  0  0  0  0  0  0
   -7.3198   -7.7383   -0.5410 N   0  0  0  0  0  0  0  0  0  0  0  0
   -6.3742   -7.3534   -1.5968 C   0  0  2  0  0  0  0  0  0  0  0  0
   -6.9343   -7.7498   -2.9655 C   0  0  0  0  0  0  0  0  0  0  0  0
   -5.0399   -8.0180   -1.3506 C   0  0  0  0  0  0  0  0  0  0  0  0
   -4.8913   -9.2314   -1.6662 O   0  0  0  0  0  0  0  0  0  0  0  0
   -3.9163   -7.3093   -0.7939 N   0  0  0  0  0  0  0  0  0  0  0  0
   -3.9543   -6.4427    0.3980 C   0  0  2  0  0  0  0  0  0  0  0  0
   -5.0319   -6.8606    1.3745 C   0  0  0  0  0  0  0  0  0  0  0  0
   -5.0657   -8.2031    1.8598 N   0  0  0  0  0  0  0  0  0  0  0  0
   -5.8884   -6.0323    1.7895 O   0  0  0  0  0  0  0  0  0  0  0  0
   -4.0276   -4.9530    0.0061 C   0  0  0  0  0  0  0  0  0  0  0  0
   -2.5324   -4.4100   -0.9050 S   0  0  0  0  0  0  0  0  0  0  0  0
   -1.4095   -4.3068    0.5448 C   0  0  0  0  0  0  0  0  0  0  0  0
    3.1060   -9.6243   -0.5495 H   0  0  0  0  0  0  0  0  0  0  0  0
    3.8082  -10.2281   -2.0964 H   0  0  0  0  0  0  0  0  0  0  0  0
    4.7869  -10.2795   -0.5785 H   0  0  0  0  0  0  0  0  0  0  0  0
    4.7094   -7.8292    0.6518 H   0  0  0  0  0  0  0  0  0  0  0  0
    5.8512   -5.8485    0.5862 H   0  0  0  0  0  0  0  0  0  0  0  0
    4.8238   -4.0312   -0.6462 H   0  0  0  0  0  0  0  0  0  0  0  0
    3.6636   -5.0575    0.2562 H   0  0  0  0  0  0  0  0  0  0  0  0
    3.5916   -2.9139   -2.3715 H   0  0  0  0  0  0  0  0  0  0  0  0
    2.1231   -3.5093   -3.1978 H   0  0  0  0  0  0  0  0  0  0  0  0
    0.3288   -4.6642   -1.5311 H   0  0  0  0  0  0  0  0  0  0  0  0
   -0.3234   -2.2766    1.9849 H   0  0  0  0  0  0  0  0  0  0  0  0
    3.2310   -1.7193   -0.3625 H   0  0  0  0  0  0  0  0  0  0  0  0
    1.1936   -0.5840    2.6387 H   0  0  0  0  0  0  0  0  0  0  0  0
    2.8493   -1.2141    2.4100 H   0  0  0  0  0  0  0  0  0  0  0  0
    0.1398    1.3429    1.4659 H   0  0  0  0  0  0  0  0  0  0  0  0
    0.3225    0.4483   -0.0879 H   0  0  0  0  0  0  0  0  0  0  0  0
    1.4745    2.4294   -1.1047 H   0  0  0  0  0  0  0  0  0  0  0  0
    0.8738    3.7823    1.5691 H   0  0  0  0  0  0  0  0  0  0  0  0
    3.6506    5.2550   -1.1447 H   0  0  0  0  0  0  0  0  0  0  0  0
    1.5142    4.6695   -2.1861 H   0  0  0  0  0  0  0  0  0  0  0  0
    0.6137    5.7086   -1.0043 H   0  0  0  0  0  0  0  0  0  0  0  0
    1.7484    6.4490   -2.1866 H   0  0  0  0  0  0  0  0  0  0  0  0
    1.9880    6.9269    0.8054 H   0  0  0  0  0  0  0  0  0  0  0  0
    5.4907    6.0920   -0.3101 H   0  0  0  0  0  0  0  0  0  0  0  0
    6.0961    7.4651   -2.3323 H   0  0  0  0  0  0  0  0  0  0  0  0
    5.0695    8.8155   -1.7363 H   0  0  0  0  0  0  0  0  0  0  0  0
    4.3167    7.2638   -2.2593 H   0  0  0  0  0  0  0  0  0  0  0  0
    6.3031    8.7671    0.8130 H   0  0  0  0  0  0  0  0  0  0  0  0
    7.4816    5.9208   -1.2340 H   0  0  0  0  0  0  0  0  0  0  0  0
   10.2697    7.1396   -0.8558 H   0  0  0  0  0  0  0  0  0  0  0  0
    9.0740    7.4766   -2.1544 H   0  0  0  0  0  0  0  0  0  0  0  0
    9.8319    5.8446   -2.0390 H   0  0  0  0  0  0  0  0  0  0  0  0
    8.0540    4.2248    0.2112 H   0  0  0  0  0  0  0  0  0  0  0  0
   11.3470    5.3399    0.0214 H   0  0  0  0  0  0  0  0  0  0  0  0
   13.0963    5.2202    1.7660 H   0  0  0  0  0  0  0  0  0  0  0  0
   11.8970    6.5080    2.1332 H   0  0  0  0  0  0  0  0  0  0  0  0
   11.8430    4.9384    3.0357 H   0  0  0  0  0  0  0  0  0  0  0  0
   10.9792    2.7613    1.5973 H   0  0  0  0  0  0  0  0  0  0  0  0
   13.3248    2.0968   -1.6408 H   0  0  0  0  0  0  0  0  0  0  0  0
   13.3885    5.0824   -0.9463 H   0  0  0  0  0  0  0  0  0  0  0  0
   14.3599    4.1851   -2.1593 H   0  0  0  0  0  0  0  0  0  0  0  0
   12.5886    4.3861   -2.4118 H   0  0  0  0  0  0  0  0  0  0  0  0
   14.5673    3.6158    0.5731 H   0  0  0  0  0  0  0  0  0  0  0  0
   12.8900    0.3791   -0.1486 H   0  0  0  0  0  0  0  0  0  0  0  0
   14.4504   -1.3433   -1.0650 H   0  0  0  0  0  0  0  0  0  0  0  0
   15.8091   -0.6401   -0.1075 H   0  0  0  0  0  0  0  0  0  0  0  0
   15.0523    0.3024   -1.4464 H   0  0  0  0  0  0  0  0  0  0  0  0
   14.0472   -0.5622    2.4013 H   0  0  0  0  0  0  0  0  0  0  0  0
   12.0360   -1.5562   -0.5726 H   0  0  0  0  0  0  0  0  0  0  0  0
   11.7207   -3.8904   -1.3167 H   0  0  0  0  0  0  0  0  0  0  0  0
   13.4374   -3.4600   -0.9987 H   0  0  0  0  0  0  0  0  0  0  0  0
   12.5481   -4.4773    0.1758 H   0  0  0  0  0  0  0  0  0  0  0  0
    9.9569   -1.6596    0.3516 H   0  0  0  0  0  0  0  0  0  0  0  0
   10.3017   -5.0388    0.5177 H   0  0  0  0  0  0  0  0  0  0  0  0
   12.0522   -5.2296    2.2808 H   0  0  0  0  0  0  0  0  0  0  0  0
   10.7923   -5.1946    3.5697 H   0  0  0  0  0  0  0  0  0  0  0  0
   10.8954   -6.5869    2.4259 H   0  0  0  0  0  0  0  0  0  0  0  0
    8.1757   -4.8146    2.6633 H   0  0  0  0  0  0  0  0  0  0  0  0
    9.6079   -7.0588   -0.0608 H   0  0  0  0  0  0  0  0  0  0  0  0
    8.6903   -9.1711    0.4731 H   0  0  0  0  0  0  0  0  0  0  0  0
    7.0230   -8.6826    0.0347 H   0  0  0  0  0  0  0  0  0  0  0  0
    8.2863   -8.8079   -1.2425 H   0  0  0  0  0  0  0  0  0  0  0  0
    8.6754   -5.7628   -1.6791 H   0  0  0  0  0  0  0  0  0  0  0  0
   -2.4200    2.3364    0.1454 H   0  0  0  0  0  0  0  0  0  0  0  0
   -1.0690    4.9881    0.8144 H   0  0  0  0  0  0  0  0  0  0  0  0
   -2.8133    5.2152    2.5669 H   0  0  0  0  0  0  0  0  0  0  0  0
   -1.8567    3.7019    2.7827 H   0  0  0  0  0  0  0  0  0  0  0  0
   -3.5208    3.6234    2.0848 H   0  0  0  0  0  0  0  0  0  0  0  0
   -2.0945    7.0233    0.1028 H   0  0  0  0  0  0  0  0  0  0  0  0
   -3.9512    8.2462   -0.9194 H   0  0  0  0  0  0  0  0  0  0  0  0
   -3.5610    8.6721    1.4280 H   0  0  0  0  0  0  0  0  0  0  0  0
   -5.3330    8.6586    1.1420 H   0  0  0  0  0  0  0  0  0  0  0  0
   -4.5238    7.2384    1.9286 H   0  0  0  0  0  0  0  0  0  0  0  0
   -6.3279    6.0507    1.0194 H   0  0  0  0  0  0  0  0  0  0  0  0
   -8.3903    6.0647   -0.8640 H   0  0  0  0  0  0  0  0  0  0  0  0
   -7.4984    8.0179   -2.0455 H   0  0  0  0  0  0  0  0  0  0  0  0
   -8.9666    8.5363   -1.1771 H   0  0  0  0  0  0  0  0  0  0  0  0
   -7.3455    8.9527   -0.5085 H   0  0  0  0  0  0  0  0  0  0  0  0
   -9.8223    5.8794    2.4039 H   0  0  0  0  0  0  0  0  0  0  0  0
  -10.6575    5.5795   -0.4105 H   0  0  0  0  0  0  0  0  0  0  0  0
  -10.9776    8.0185   -0.3425 H   0  0  0  0  0  0  0  0  0  0  0  0
  -11.7954    7.9236    1.2574 H   0  0  0  0  0  0  0  0  0  0  0  0
  -12.5985    7.2731   -0.2164 H   0  0  0  0  0  0  0  0  0  0  0  0
  -13.1420    3.3599    1.2557 H   0  0  0  0  0  0  0  0  0  0  0  0
  -11.4251    3.5168   -1.0945 H   0  0  0  0  0  0  0  0  0  0  0  0
  -14.1416    4.9660   -1.2784 H   0  0  0  0  0  0  0  0  0  0  0  0
  -13.2945    4.2759   -2.7199 H   0  0  0  0  0  0  0  0  0  0  0  0
  -12.5093    5.5682   -1.7775 H   0  0  0  0  0  0  0  0  0  0  0  0
  -13.0117    0.3994   -2.0056 H   0  0  0  0  0  0  0  0  0  0  0  0
  -10.7665    1.5012   -0.2506 H   0  0  0  0  0  0  0  0  0  0  0  0
  -10.1392    1.8894   -2.6071 H   0  0  0  0  0  0  0  0  0  0  0  0
   -9.1538    0.5415   -1.9257 H   0  0  0  0  0  0  0  0  0  0  0  0
  -10.5379    0.1817   -3.0368 H   0  0  0  0  0  0  0  0  0  0  0  0
  -11.1637   -0.9165    1.7222 H   0  0  0  0  0  0  0  0  0  0  0  0
  -13.7598   -0.7854    0.1494 H   0  0  0  0  0  0  0  0  0  0  0  0
  -13.7682    0.2307    2.4130 H   0  0  0  0  0  0  0  0  0  0  0  0
  -13.2605   -1.3379    3.1436 H   0  0  0  0  0  0  0  0  0  0  0  0
  -14.8593   -1.1960    2.3170 H   0  0  0  0  0  0  0  0  0  0  0  0
  -11.8217   -3.1815    2.3336 H   0  0  0  0  0  0  0  0  0  0  0  0
  -11.3873   -4.4296   -0.2205 H   0  0  0  0  0  0  0  0  0  0  0  0
  -12.0106   -6.7912    0.2551 H   0  0  0  0  0  0  0  0  0  0  0  0
  -12.7459   -6.2974    1.8351 H   0  0  0  0  0  0  0  0  0  0  0  0
  -13.4592   -5.7360    0.2836 H   0  0  0  0  0  0  0  0  0  0  0  0
   -8.3502   -4.2144    1.5301 H   0  0  0  0  0  0  0  0  0  0  0  0
   -7.4214   -5.0543   -0.3333 H   0  0  0  0  0  0  0  0  0  0  0  0
   -8.5210   -5.1897   -2.4092 H   0  0  0  0  0  0  0  0  0  0  0  0
   -9.4008   -3.9226   -1.5113 H   0  0  0  0  0  0  0  0  0  0  0  0
  -10.1181   -5.5826   -1.6750 H   0  0  0  0  0  0  0  0  0  0  0  0
   -7.3459   -8.7497   -0.2784 H   0  0  0  0  0  0  0  0  0  0  0  0
   -6.2157   -6.2635   -1.6154 H   0  0  0  0  0  0  0  0  0  0  0  0
   -7.0865   -8.8493   -3.0267 H   0  0  0  0  0  0  0  0  0  0  0  0
   -6.2392   -7.4283   -3.7710 H   0  0  0  0  0  0  0  0  0  0  0  0
   -7.9164   -7.2664   -3.1417 H   0  0  0  0  0  0  0  0  0  0  0  0
   -2.9748   -7.6735   -1.0628 H   0  0  0  0  0  0  0  0  0  0  0  0
   -3.0013   -6.5876    0.9463 H   0  0  0  0  0  0  0  0  0  0  0  0
   -4.3520   -8.9001    1.5501 H   0  0  0  0  0  0  0  0  0  0  0  0
   -5.8194   -8.5080    2.5180 H   0  0  0  0  0  0  0  0  0  0  0  0
   -4.9021   -4.7639   -0.6444 H   0  0  0  0  0  0  0  0  0  0  0  0
   -4.1574   -4.3174    0.9067 H   0  0  0  0  0  0  0  0  0  0  0  0
   -1.0999   -5.3286    0.8510 H   0  0  0  0  0  0  0  0  0  0  0  0
   -1.9495   -3.8384    1.3970 H   0  0  0  0  0  0  0  0  0  0  0  0
  1  2  1  0
  2  3  2  0
  2  4  1  0
  4  5  1  0
  5  6  1  0
  6  7  1  0
  7  8  1  0
  8  9  1  0
  9 10  1  0
 10 11  2  0
 11 12  1  0
 12 13  2  0
 13 14  1  0
 13 15  1  0
 15 16  1  0
 16 17  1  0
 17 18  1  0
 18 19  1  0
 19 20  1  0
 20 21  2  0
 20 22  1  0
 22 23  1  0
 22 24  1  0
 24 25  1  0
 25 26  2  0
 25 27  1  0
 27 28  1  0
 27 29  1  0
 29 30  1  0
 30 31  2  0
 30 32  1  0
 32 33  1  0
 32 34  1  0
 34 35  1  0
 35 36  2  0
 35 37  1  0
 37 38  1  0
 37 39  1  0
 39 40  1  0
 40 41  2  0
 40 42  1  0
 42 43  1  0
 42 44  1  0
 44 45  1  0
 45 46  2  0
 45 47  1  0
 47 48  1  0
 47 49  1  0
 49 50  1  0
 50 51  2  0
 50 52  1  0
 52 53  1  0
 52 54  1  0
 54 55  1  0
 55 56  2  0
 55 57  1  0
 57 58  1  0
 57 59  1  0
 59 60  1  0
 60 61  2  0
 60 62  1  0
 62 63  1  0
 62 64  1  0
 64 65  1  0
 65 66  2  0
 18 67  1  0
 67 68  2  0
 67 69  1  0
 69 70  1  0
 70 71  1  0
 70 72  1  0
 72 73  2  0
 72 74  1  0
 74 75  1  0
 75 76  1  0
 75 77  1  0
 77 78  2  0
 77 79  1  0
 79 80  1  0
 80 81  1  0
 80 82  1  0
 82 83  2  0
 82 84  1  0
 84 85  1  0
 85 86  1  0
 85 87  1  0
 87 88  2  0
 87 89  1  0
 89 90  1  0
 90 91  1  0
 90 92  1  0
 92 93  2  0
 92 94  1  0
 94 95  1  0
 95 96  1  0
 95 97  1  0
 97 98  2  0
 97 99  1  0
 99100  1  0
100101  1  0
100102  1  0
102103  2  0
102104  1  0
104105  1  0
105106  1  0
105107  1  0
107108  2  0
107109  1  0
109110  1  0
110111  1  0
110112  1  0
112113  2  0
112114  1  0
114115  1  0
115116  1  0
115117  1  0
117118  2  0
117119  1  0
119120  1  0
120121  1  0
121122  1  0
121123  2  0
120124  1  0
124125  1  0
125126  1  0
 65  5  1  0
 14  9  2  0
126 11  1  0
  1127  1  0
  1128  1  0
  1129  1  0
  4130  1  0
  5131  1  1
  6132  1  0
  6133  1  0
  8134  1  0
  8135  1  0
 10136  1  0
 12137  1  0
 14138  1  0
 15139  1  0
 15140  1  0
 17141  1  0
 17142  1  0
 18143  1  6
 19144  1  0
 22145  1  6
 23146  1  0
 23147  1  0
 23148  1  0
 24149  1  0
 27150  1  6
 28151  1  0
 28152  1  0
 28153  1  0
 29154  1  0
 32155  1  6
 33156  1  0
 33157  1  0
 33158  1  0
 34159  1  0
 37160  1  6
 38161  1  0
 38162  1  0
 38163  1  0
 39164  1  0
 42165  1  6
 43166  1  0
 43167  1  0
 43168  1  0
 44169  1  0
 47170  1  6
 48171  1  0
 48172  1  0
 48173  1  0
 49174  1  0
 52175  1  6
 53176  1  0
 53177  1  0
 53178  1  0
 54179  1  0
 57180  1  6
 58181  1  0
 58182  1  0
 58183  1  0
 59184  1  0
 62185  1  1
 63186  1  0
 63187  1  0
 63188  1  0
 64189  1  0
 69190  1  0
 70191  1  1
 71192  1  0
 71193  1  0
 71194  1  0
 74195  1  0
 75196  1  6
 76197  1  0
 76198  1  0
 76199  1  0
 79200  1  0
 80201  1  6
 81202  1  0
 81203  1  0
 81204  1  0
 84205  1  0
 85206  1  6
 86207  1  0
 86208  1  0
 86209  1  0
 89210  1  0
 90211  1  6
 91212  1  0
 91213  1  0
 91214  1  0
 94215  1  0
 95216  1  1
 96217  1  0
 96218  1  0
 96219  1  0
 99220  1  0
100221  1  6
101222  1  0
101223  1  0
101224  1  0
104225  1  0
105226  1  6
106227  1  0
106228  1  0
106229  1  0
109230  1  0
110231  1  6
111232  1  0
111233  1  0
111234  1  0
114235  1  0
115236  1  6
116237  1  0
116238  1  0
116239  1  0
119240  1  0
120241  1  1
122242  1  0
122243  1  0
124244  1  0
124245  1  0
126246  1  0
126247  1  0
M  END
