
     RDKit          3D

187189  0  0  0  0  0  0  0  0999 V2000
    0.9061    7.2676    2.4147 C   0  0  0  0  0  0  0  0  0  0  0  0
    0.6919    7.3234    0.9341 C   0  0  0  0  0  0  0  0  0  0  0  0
    1.5470    7.9199    0.2196 O   0  0  0  0  0  0  0  0  0  0  0  0
   -0.4630    6.7088    0.3457 N   0  0  0  0  0  0  0  0  0  0  0  0
   -0.6387    6.5311   -1.1018 C   0  0  2  0  0  0  0  0  0  0  0  0
    0.4262    5.5749   -1.6836 C   0  0  0  0  0  0  0  0  0  0  0  0
    0.3099    3.9186   -0.9050 S   0  0  0  0  0  0  0  0  0  0  0  0
    1.7572    4.0596    0.2191 C   0  0  0  0  0  0  0  0  0  0  0  0
    2.8833    3.1916   -0.2766 C   0  0  0  0  0  0  0  0  0  0  0  0
    2.7516    1.7984   -0.2789 C   0  0  0  0  0  0  0  0  0  0  0  0
    3.8041    0.9836   -0.7226 C   0  0  0  0  0  0  0  0  0  0  0  0
    5.0116    1.5755   -1.1216 C   0  0  0  0  0  0  0  0  0  0  0  0
    5.1715    2.9691   -1.0985 C   0  0  0  0  0  0  0  0  0  0  0  0
    4.0908    3.7719   -0.7022 C   0  0  0  0  0  0  0  0  0  0  0  0
    6.4701    3.5885   -1.5557 C   0  0  0  0  0  0  0  0  0  0  0  0
    7.0333    4.9342   -0.4479 S   0  0  0  0  0  0  0  0  0  0  0  0
    7.4381    3.8798    0.9942 C   0  0  0  0  0  0  0  0  0  0  0  0
    8.8676    3.3395    0.9090 C   0  0  1  0  0  0  0  0  0  0  0  0
    9.8750    4.4527    1.0374 C   0  0  0  0  0  0  0  0  0  0  0  0
   10.6521    4.8619   -0.0924 N   0  0  0  0  0  0  0  0  0  0  0  0
   10.0190    5.0475    2.1391 O   0  0  0  0  0  0  0  0  0  0  0  0
    9.0775    2.3566    1.9783 N   0  0  0  0  0  0  0  0  0  0  0  0
    9.3172    0.9507    1.7924 C   0  0  0  0  0  0  0  0  0  0  0  0
    9.4086    0.2202    2.8214 O   0  0  0  0  0  0  0  0  0  0  0  0
    9.5240    0.3137    0.4314 C   0  0  1  0  0  0  0  0  0  0  0  0
   10.9656    0.5862   -0.0288 C   0  0  0  0  0  0  0  0  0  0  0  0
    9.2158   -1.1235    0.5080 N   0  0  0  0  0  0  0  0  0  0  0  0
    9.8896   -2.1531   -0.2297 C   0  0  0  0  0  0  0  0  0  0  0  0
   10.2464   -1.9457   -1.4188 O   0  0  0  0  0  0  0  0  0  0  0  0
   10.2527   -3.4665    0.4269 C   0  0  1  0  0  0  0  0  0  0  0  0
    9.5083   -3.7543    1.7270 C   0  0  0  0  0  0  0  0  0  0  0  0
   10.1395   -4.5946   -0.5084 N   0  0  0  0  0  0  0  0  0  0  0  0
    8.9381   -5.1342   -1.0949 C   0  0  0  0  0  0  0  0  0  0  0  0
    9.0030   -6.2693   -1.6455 O   0  0  0  0  0  0  0  0  0  0  0  0
    7.5951   -4.4312   -1.0572 C   0  0  1  0  0  0  0  0  0  0  0  0
    7.0664   -4.2531   -2.4833 C   0  0  0  0  0  0  0  0  0  0  0  0
    6.6407   -5.2228   -0.2787 N   0  0  0  0  0  0  0  0  0  0  0  0
    5.9488   -4.6955    0.8596 C   0  0  0  0  0  0  0  0  0  0  0  0
    6.3016   -5.0540    2.0118 O   0  0  0  0  0  0  0  0  0  0  0  0
    4.7633   -3.7686    0.7060 C   0  0  1  0  0  0  0  0  0  0  0  0
    5.2220   -2.2939    0.7001 C   0  0  0  0  0  0  0  0  0  0  0  0
    3.7841   -1.1837    0.9544 S   0  0  0  0  0  0  0  0  0  0  0  0
    3.6445   -0.5125   -0.7482 C   0  0  0  0  0  0  0  0  0  0  0  0
    4.0061   -4.0920   -0.5087 N   0  0  0  0  0  0  0  0  0  0  0  0
    3.4332   -5.3841   -0.7906 C   0  0  0  0  0  0  0  0  0  0  0  0
    3.5709   -5.8595   -1.9507 O   0  0  0  0  0  0  0  0  0  0  0  0
    2.6317   -6.1791    0.2211 C   0  0  1  0  0  0  0  0  0  0  0  0
    3.5281   -6.9226    1.2144 C   0  0  0  0  0  0  0  0  0  0  0  0
    1.6722   -5.3238    0.9306 N   0  0  0  0  0  0  0  0  0  0  0  0
    0.2709   -5.6137    0.9862 C   0  0  0  0  0  0  0  0  0  0  0  0
   -0.2629   -5.7710    2.1192 O   0  0  0  0  0  0  0  0  0  0  0  0
   -0.6048   -5.6725   -0.2476 C   0  0  1  0  0  0  0  0  0  0  0  0
   -0.1126   -4.7457   -1.3612 C   0  0  0  0  0  0  0  0  0  0  0  0
   -0.7180   -7.0560   -0.7403 N   0  0  0  0  0  0  0  0  0  0  0  0
   -1.9029   -7.8769   -0.7399 C   0  0  0  0  0  0  0  0  0  0  0  0
   -1.8567   -8.9899   -1.3288 O   0  0  0  0  0  0  0  0  0  0  0  0
   -3.2017   -7.4823   -0.0664 C   0  0  1  0  0  0  0  0  0  0  0  0
   -3.0003   -7.2373    1.4402 C   0  0  0  0  0  0  0  0  0  0  0  0
   -3.7953   -6.3223   -0.7539 N   0  0  0  0  0  0  0  0  0  0  0  0
   -5.1492   -5.8550   -0.6129 C   0  0  0  0  0  0  0  0  0  0  0  0
   -5.5496   -4.9476   -1.3884 O   0  0  0  0  0  0  0  0  0  0  0  0
   -6.0981   -6.3730    0.4462 C   0  0  1  0  0  0  0  0  0  0  0  0
   -6.1613   -5.3986    1.6292 C   0  0  0  0  0  0  0  0  0  0  0  0
   -7.4167   -6.6472   -0.1416 N   0  0  0  0  0  0  0  0  0  0  0  0
   -8.6092   -5.8930    0.1207 C   0  0  0  0  0  0  0  0  0  0  0  0
   -9.5841   -6.4626    0.6835 O   0  0  0  0  0  0  0  0  0  0  0  0
   -8.7672   -4.4841   -0.3880 C   0  0  1  0  0  0  0  0  0  0  0  0
   -9.6093   -4.4897   -1.6715 C   0  0  0  0  0  0  0  0  0  0  0  0
   -9.3258   -3.6200    0.6621 N   0  0  0  0  0  0  0  0  0  0  0  0
  -10.6482   -3.0814    0.6399 C   0  0  0  0  0  0  0  0  0  0  0  0
  -11.6377   -3.8455    0.8191 O   0  0  0  0  0  0  0  0  0  0  0  0
  -10.8686   -1.6006    0.4590 C   0  0  1  0  0  0  0  0  0  0  0  0
  -11.3295   -0.9444    1.7736 C   0  0  0  0  0  0  0  0  0  0  0  0
   -9.6684   -0.9678   -0.1131 N   0  0  0  0  0  0  0  0  0  0  0  0
   -8.8381    0.0027    0.5522 C   0  0  0  0  0  0  0  0  0  0  0  0
   -8.4272   -0.2296    1.7216 O   0  0  0  0  0  0  0  0  0  0  0  0
   -8.4180    1.2903   -0.1251 C   0  0  1  0  0  0  0  0  0  0  0  0
   -9.0079    1.4408   -1.5338 C   0  0  0  0  0  0  0  0  0  0  0  0
   -8.8234    2.4363    0.7034 N   0  0  0  0  0  0  0  0  0  0  0  0
   -8.1531    3.7094    0.7680 C   0  0  0  0  0  0  0  0  0  0  0  0
   -8.5120    4.5225    1.6599 O   0  0  0  0  0  0  0  0  0  0  0  0
   -7.1037    4.1425   -0.2389 C   0  0  1  0  0  0  0  0  0  0  0  0
   -7.6937    5.1667   -1.2142 C   0  0  0  0  0  0  0  0  0  0  0  0
   -5.9077    4.6790    0.4296 N   0  0  0  0  0  0  0  0  0  0  0  0
   -5.8849    5.9143    1.1598 C   0  0  0  0  0  0  0  0  0  0  0  0
   -6.1555    5.9133    2.3915 O   0  0  0  0  0  0  0  0  0  0  0  0
   -5.4411    7.1928    0.4853 C   0  0  1  0  0  0  0  0  0  0  0  0
   -6.4724    8.3014    0.7227 C   0  0  0  0  0  0  0  0  0  0  0  0
   -4.1394    7.6144    1.0124 N   0  0  0  0  0  0  0  0  0  0  0  0
   -3.2668    8.5135    0.3107 C   0  0  0  0  0  0  0  0  0  0  0  0
   -2.6241    9.3756    0.9755 O   0  0  0  0  0  0  0  0  0  0  0  0
   -3.0868    8.4576   -1.1898 C   0  0  1  0  0  0  0  0  0  0  0  0
   -4.0652    9.4056   -1.8981 C   0  0  0  0  0  0  0  0  0  0  0  0
   -1.7077    8.8281   -1.5420 N   0  0  0  0  0  0  0  0  0  0  0  0
   -0.6696    7.8746   -1.7999 C   0  0  0  0  0  0  0  0  0  0  0  0
    0.2790    8.2070   -2.5584 O   0  0  0  0  0  0  0  0  0  0  0  0
    1.8435    6.7108    2.6247 H   0  0  0  0  0  0  0  0  0  0  0  0
    0.9899    8.2986    2.8191 H   0  0  0  0  0  0  0  0  0  0  0  0
    0.0628    6.7443    2.9212 H   0  0  0  0  0  0  0  0  0  0  0  0
   -1.2070    6.3284    0.9754 H   0  0  0  0  0  0  0  0  0  0  0  0
   -1.6186    6.0265   -1.2769 H   0  0  0  0  0  0  0  0  0  0  0  0
    1.4413    6.0093   -1.6059 H   0  0  0  0  0  0  0  0  0  0  0  0
    0.2237    5.4317   -2.7641 H   0  0  0  0  0  0  0  0  0  0  0  0
    2.0960    5.1072    0.3248 H   0  0  0  0  0  0  0  0  0  0  0  0
    1.4653    3.7278    1.2373 H   0  0  0  0  0  0  0  0  0  0  0  0
    1.8208    1.3466    0.0467 H   0  0  0  0  0  0  0  0  0  0  0  0
    5.8265    0.9446   -1.4493 H   0  0  0  0  0  0  0  0  0  0  0  0
    4.1869    4.8502   -0.7234 H   0  0  0  0  0  0  0  0  0  0  0  0
    6.3183    4.0153   -2.5700 H   0  0  0  0  0  0  0  0  0  0  0  0
    7.2743    2.8299   -1.6272 H   0  0  0  0  0  0  0  0  0  0  0  0
    6.7265    3.0320    1.0705 H   0  0  0  0  0  0  0  0  0  0  0  0
    7.3206    4.4767    1.9240 H   0  0  0  0  0  0  0  0  0  0  0  0
    9.0109    2.8697   -0.0841 H   0  0  0  0  0  0  0  0  0  0  0  0
   11.3775    5.6028    0.0026 H   0  0  0  0  0  0  0  0  0  0  0  0
   10.5249    4.3960   -1.0191 H   0  0  0  0  0  0  0  0  0  0  0  0
    8.9819    2.6908    2.9637 H   0  0  0  0  0  0  0  0  0  0  0  0
    8.8120    0.7507   -0.2984 H   0  0  0  0  0  0  0  0  0  0  0  0
   11.2244    1.6598    0.1028 H   0  0  0  0  0  0  0  0  0  0  0  0
   11.6867   -0.0244    0.5587 H   0  0  0  0  0  0  0  0  0  0  0  0
   11.0793    0.3686   -1.1090 H   0  0  0  0  0  0  0  0  0  0  0  0
    8.4066   -1.4083    1.1010 H   0  0  0  0  0  0  0  0  0  0  0  0
   11.3251   -3.3734    0.6998 H   0  0  0  0  0  0  0  0  0  0  0  0
    9.7619   -4.7726    2.1006 H   0  0  0  0  0  0  0  0  0  0  0  0
    8.4116   -3.6933    1.5989 H   0  0  0  0  0  0  0  0  0  0  0  0
    9.8088   -3.0231    2.5098 H   0  0  0  0  0  0  0  0  0  0  0  0
   11.0275   -5.0966   -0.7276 H   0  0  0  0  0  0  0  0  0  0  0  0
    7.6879   -3.4251   -0.6155 H   0  0  0  0  0  0  0  0  0  0  0  0
    7.8059   -3.6958   -3.1003 H   0  0  0  0  0  0  0  0  0  0  0  0
    6.1234   -3.6662   -2.4670 H   0  0  0  0  0  0  0  0  0  0  0  0
    6.8659   -5.2380   -2.9624 H   0  0  0  0  0  0  0  0  0  0  0  0
    6.6012   -6.2576   -0.4157 H   0  0  0  0  0  0  0  0  0  0  0  0
    4.1118   -3.9044    1.5886 H   0  0  0  0  0  0  0  0  0  0  0  0
    5.9120   -2.1308    1.5529 H   0  0  0  0  0  0  0  0  0  0  0  0
    5.7921   -2.0602   -0.2196 H   0  0  0  0  0  0  0  0  0  0  0  0
    2.6379   -0.7686   -1.1468 H   0  0  0  0  0  0  0  0  0  0  0  0
    4.3795   -0.9589   -1.4499 H   0  0  0  0  0  0  0  0  0  0  0  0
    4.0627   -3.4374   -1.3202 H   0  0  0  0  0  0  0  0  0  0  0  0
    2.0855   -6.9650   -0.3376 H   0  0  0  0  0  0  0  0  0  0  0  0
    2.9382   -7.7105    1.7346 H   0  0  0  0  0  0  0  0  0  0  0  0
    3.9251   -6.2404    1.9894 H   0  0  0  0  0  0  0  0  0  0  0  0
    4.3735   -7.4127    0.6800 H   0  0  0  0  0  0  0  0  0  0  0  0
    2.0438   -4.6986    1.6805 H   0  0  0  0  0  0  0  0  0  0  0  0
   -1.5960   -5.2820    0.0479 H   0  0  0  0  0  0  0  0  0  0  0  0
    0.8591   -5.0873   -1.7628 H   0  0  0  0  0  0  0  0  0  0  0  0
   -0.0024   -3.7079   -0.9770 H   0  0  0  0  0  0  0  0  0  0  0  0
   -0.8460   -4.7421   -2.1948 H   0  0  0  0  0  0  0  0  0  0  0  0
    0.1123   -7.4578   -1.2347 H   0  0  0  0  0  0  0  0  0  0  0  0
   -3.9028   -8.3413   -0.1808 H   0  0  0  0  0  0  0  0  0  0  0  0
   -2.1194   -7.7962    1.8166 H   0  0  0  0  0  0  0  0  0  0  0  0
   -2.8704   -6.1603    1.6639 H   0  0  0  0  0  0  0  0  0  0  0  0
   -3.8692   -7.5924    2.0203 H   0  0  0  0  0  0  0  0  0  0  0  0
   -3.2362   -5.8571   -1.5076 H   0  0  0  0  0  0  0  0  0  0  0  0
   -5.7331   -7.3412    0.8412 H   0  0  0  0  0  0  0  0  0  0  0  0
   -6.8957   -5.7609    2.3820 H   0  0  0  0  0  0  0  0  0  0  0  0
   -6.4441   -4.3843    1.2929 H   0  0  0  0  0  0  0  0  0  0  0  0
   -5.1711   -5.3292    2.1200 H   0  0  0  0  0  0  0  0  0  0  0  0
   -7.5548   -7.5992   -0.5468 H   0  0  0  0  0  0  0  0  0  0  0  0
   -7.7730   -4.0747   -0.6659 H   0  0  0  0  0  0  0  0  0  0  0  0
  -10.5994   -4.9639   -1.4984 H   0  0  0  0  0  0  0  0  0  0  0  0
   -9.0843   -5.0631   -2.4638 H   0  0  0  0  0  0  0  0  0  0  0  0
   -9.7647   -3.4568   -2.0415 H   0  0  0  0  0  0  0  0  0  0  0  0
   -8.6917   -3.3285    1.4449 H   0  0  0  0  0  0  0  0  0  0  0  0
  -11.6928   -1.4698   -0.2766 H   0  0  0  0  0  0  0  0  0  0  0  0
  -11.3693    0.1574    1.6582 H   0  0  0  0  0  0  0  0  0  0  0  0
  -12.3523   -1.2871    2.0331 H   0  0  0  0  0  0  0  0  0  0  0  0
  -10.6474   -1.2079    2.6126 H   0  0  0  0  0  0  0  0  0  0  0  0
   -9.4327   -1.2115   -1.1003 H   0  0  0  0  0  0  0  0  0  0  0  0
   -7.3071    1.2529   -0.2022 H   0  0  0  0  0  0  0  0  0  0  0  0
  -10.1199    1.4044   -1.4873 H   0  0  0  0  0  0  0  0  0  0  0  0
   -8.7065    2.4017   -1.9837 H   0  0  0  0  0  0  0  0  0  0  0  0
   -8.6351    0.6324   -2.2003 H   0  0  0  0  0  0  0  0  0  0  0  0
   -9.6536    2.3100    1.3331 H   0  0  0  0  0  0  0  0  0  0  0  0
   -6.7777    3.2808   -0.8463 H   0  0  0  0  0  0  0  0  0  0  0  0
   -6.9094    5.5241   -1.9138 H   0  0  0  0  0  0  0  0  0  0  0  0
   -8.1181    6.0367   -0.6679 H   0  0  0  0  0  0  0  0  0  0  0  0
   -8.5134    4.7073   -1.8099 H   0  0  0  0  0  0  0  0  0  0  0  0
   -5.0147    4.1406    0.3594 H   0  0  0  0  0  0  0  0  0  0  0  0
   -5.3671    6.9994   -0.6052 H   0  0  0  0  0  0  0  0  0  0  0  0
   -6.1046    9.2676    0.3150 H   0  0  0  0  0  0  0  0  0  0  0  0
   -7.4254    8.0620    0.2127 H   0  0  0  0  0  0  0  0  0  0  0  0
   -6.6731    8.4425    1.8078 H   0  0  0  0  0  0  0  0  0  0  0  0
   -4.0067    7.5499    2.0493 H   0  0  0  0  0  0  0  0  0  0  0  0
   -3.3013    7.4357   -1.5539 H   0  0  0  0  0  0  0  0  0  0  0  0
   -3.9948   10.4306   -1.4731 H   0  0  0  0  0  0  0  0  0  0  0  0
   -3.8193    9.4452   -2.9808 H   0  0  0  0  0  0  0  0  0  0  0  0
   -5.1085    9.0369   -1.8072 H   0  0  0  0  0  0  0  0  0  0  0  0
   -1.4955    9.8397   -1.7203 H   0  0  0  0  0  0  0  0  0  0  0  0
  1  2  1  0
  2  3  2  0
  2  4  1  0
  4  5  1  0
  5  6  1  0
  6  7  1  0
  7  8  1  0
  8  9  1  0
  9 10  2  0
 10 11  1  0
 11 12  2  0
 12 13  1  0
 13 14  2  0
 13 15  1  0
 15 16  1  0
 16 17  1  0
 17 18  1  0
 18 19  1  0
 19 20  1  0
 19 21  2  0
 18 22  1  0
 22 23  1  0
 23 24  2  0
 23 25  1  0
 25 26  1  0
 25 27  1  0
 27 28  1  0
 28 29  2  0
 28 30  1  0
 30 31  1  0
 30 32  1  0
 32 33  1  0
 33 34  2  0
 33 35  1  0
 35 36  1  0
 35 37  1  0
 37 38  1  0
 38 39  2  0
 38 40  1  0
 40 41  1  0
 41 42  1  0
 42 43  1  0
 40 44  1  0
 44 45  1  0
 45 46  2  0
 45 47  1  0
 47 48  1  0
 47 49  1  0
 49 50  1  0
 50 51  2  0
 50 52  1  0
 52 53  1  0
 52 54  1  0
 54 55  1  0
 55 56  2  0
 55 57  1  0
 57 58  1  0
 57 59  1  0
 59 60  1  0
 60 61  2  0
 60 62  1  0
 62 63  1  0
 62 64  1  0
 64 65  1  0
 65 66  2  0
 65 67  1  0
 67 68  1  0
 67 69  1  0
 69 70  1  0
 70 71  2  0
 70 72  1  0
 72 73  1  0
 72 74  1  0
 74 75  1  0
 75 76  2  0
 75 77  1  0
 77 78  1  0
 77 79  1  0
 79 80  1  0
 80 81  2  0
 80 82  1  0
 82 83  1  0
 82 84  1  0
 84 85  1  0
 85 86  2  0
 85 87  1  0
 87 88  1  0
 87 89  1  0
 89 90  1  0
 90 91  2  0
 90 92  1  0
 92 93  1  0
 92 94  1  0
 94 95  1  0
 95 96  2  0
 95  5  1  0
 14  9  1  0
 43 11  1  0
  1 97  1  0
  1 98  1  0
  1 99  1  0
  4100  1  0
  5101  1  1
  6102  1  0
  6103  1  0
  8104  1  0
  8105  1  0
 10106  1  0
 12107  1  0
 14108  1  0
 15109  1  0
 15110  1  0
 17111  1  0
 17112  1  0
 18113  1  6
 20114  1  0
 20115  1  0
 22116  1  0
 25117  1  6
 26118  1  0
 26119  1  0
 26120  1  0
 27121  1  0
 30122  1  1
 31123  1  0
 31124  1  0
 31125  1  0
 32126  1  0
 35127  1  1
 36128  1  0
 36129  1  0
 36130  1  0
 37131  1  0
 40132  1  1
 41133  1  0
 41134  1  0
 43135  1  0
 43136  1  0
 44137  1  0
 47138  1  6
 48139  1  0
 48140  1  0
 48141  1  0
 49142  1  0
 52143  1  1
 53144  1  0
 53145  1  0
 53146  1  0
 54147  1  0
 57148  1  1
 58149  1  0
 58150  1  0
 58151  1  0
 59152  1  0
 62153  1  1
 63154  1  0
 63155  1  0
 63156  1  0
 64157  1  0
 67158  1  6
 68159  1  0
 68160  1  0
 68161  1  0
 69162  1  0
 72163  1  6
 73164  1  0
 73165  1  0
 73166  1  0
 74167  1  0
 77168  1  6
 78169  1  0
 78170  1  0
 78171  1  0
 79172  1  0
 82173  1  6
 83174  1  0
 83175  1  0
 83176  1  0
 84177  1  0
 87178  1  6
 88179  1  0
 88180  1  0
 88181  1  0
 89182  1  0
 92183  1  6
 93184  1  0
 93185  1  0
 93186  1  0
 94187  1  0
M  END
