
     RDKit          3D

237239  0  0  0  0  0  0  0  0999 V2000
    3.1601    9.1473   -3.2024 C   0  0  0  0  0  0  0  0  0  0  0  0
    3.4670    7.9036   -3.9803 C   0  0  0  0  0  0  0  0  0  0  0  0
    3.5558    7.9772   -5.2375 O   0  0  0  0  0  0  0  0  0  0  0  0
    3.6701    6.6389   -3.3315 N   0  0  0  0  0  0  0  0  0  0  0  0
    3.7814    6.4900   -1.8781 C   0  0  1  0  0  0  0  0  0  0  0  0
    3.4803    5.0399   -1.4658 C   0  0  0  0  0  0  0  0  0  0  0  0
    3.3582    4.8989    0.3608 S   0  0  0  0  0  0  0  0  0  0  0  0
    3.2226    3.0809    0.4078 C   0  0  0  0  0  0  0  0  0  0  0  0
    1.8053    2.6572    0.1867 C   0  0  0  0  0  0  0  0  0  0  0  0
    0.8151    3.0284    1.1012 C   0  0  0  0  0  0  0  0  0  0  0  0
   -0.5127    2.6130    0.9277 C   0  0  0  0  0  0  0  0  0  0  0  0
   -0.8488    1.8490   -0.1986 C   0  0  0  0  0  0  0  0  0  0  0  0
    0.1466    1.4115   -1.0899 C   0  0  0  0  0  0  0  0  0  0  0  0
    1.4724    1.8237   -0.8916 C   0  0  0  0  0  0  0  0  0  0  0  0
   -0.1869    0.4821   -2.2295 C   0  0  0  0  0  0  0  0  0  0  0  0
   -1.2292   -0.9386   -1.7140 S   0  0  0  0  0  0  0  0  0  0  0  0
   -0.1898   -1.4446   -0.2966 C   0  0  0  0  0  0  0  0  0  0  0  0
   -0.2953   -2.9446   -0.0046 C   0  0  2  0  0  0  0  0  0  0  0  0
    0.4976   -3.2571    1.1921 N   0  0  0  0  0  0  0  0  0  0  0  0
    0.6033   -4.5730    1.7467 C   0  0  0  0  0  0  0  0  0  0  0  0
   -0.4010   -5.3383    1.7723 O   0  0  0  0  0  0  0  0  0  0  0  0
    1.9056   -5.0037    2.3688 C   0  0  1  0  0  0  0  0  0  0  0  0
    1.9709   -4.5538    3.8274 C   0  0  0  0  0  0  0  0  0  0  0  0
    2.0722   -6.4607    2.2820 N   0  0  0  0  0  0  0  0  0  0  0  0
    3.3322   -7.0821    1.9945 C   0  0  0  0  0  0  0  0  0  0  0  0
    3.7450   -7.9962    2.7616 O   0  0  0  0  0  0  0  0  0  0  0  0
    4.1606   -6.7379    0.7750 C   0  0  1  0  0  0  0  0  0  0  0  0
    3.2851   -6.4815   -0.4599 C   0  0  0  0  0  0  0  0  0  0  0  0
    5.0368   -5.5886    1.0382 N   0  0  0  0  0  0  0  0  0  0  0  0
    6.0988   -5.1880    0.1657 C   0  0  0  0  0  0  0  0  0  0  0  0
    6.3432   -3.9553    0.0364 O   0  0  0  0  0  0  0  0  0  0  0  0
    7.0218   -6.2044   -0.4756 C   0  0  1  0  0  0  0  0  0  0  0  0
    7.6372   -5.6725   -1.7798 C   0  0  0  0  0  0  0  0  0  0  0  0
    8.0275   -6.6130    0.5123 N   0  0  0  0  0  0  0  0  0  0  0  0
    9.4392   -6.4369    0.3456 C   0  0  0  0  0  0  0  0  0  0  0  0
   10.0863   -7.2388   -0.3791 O   0  0  0  0  0  0  0  0  0  0  0  0
   10.1313   -5.2665    1.0012 C   0  0  1  0  0  0  0  0  0  0  0  0
    9.8517   -5.2290    2.5047 C   0  0  0  0  0  0  0  0  0  0  0  0
   11.5773   -5.3217    0.7714 N   0  0  0  0  0  0  0  0  0  0  0  0
   12.2566   -4.2422    0.1233 C   0  0  0  0  0  0  0  0  0  0  0  0
   12.3009   -4.2035   -1.1377 O   0  0  0  0  0  0  0  0  0  0  0  0
   12.8471   -3.1347    0.9576 C   0  0  1  0  0  0  0  0  0  0  0  0
   13.8492   -3.6944    1.9670 C   0  0  0  0  0  0  0  0  0  0  0  0
   13.5166   -2.1453    0.1059 N   0  0  0  0  0  0  0  0  0  0  0  0
   13.2147   -0.7397    0.0564 C   0  0  0  0  0  0  0  0  0  0  0  0
   14.0827    0.0426   -0.4194 O   0  0  0  0  0  0  0  0  0  0  0  0
   11.8995   -0.1666    0.5529 C   0  0  1  0  0  0  0  0  0  0  0  0
   11.9283    0.1234    2.0680 C   0  0  0  0  0  0  0  0  0  0  0  0
   11.5294    1.0372   -0.2084 N   0  0  0  0  0  0  0  0  0  0  0  0
   12.1006    2.3419    0.0018 C   0  0  0  0  0  0  0  0  0  0  0  0
   13.1644    2.4654    0.6612 O   0  0  0  0  0  0  0  0  0  0  0  0
   11.4515    3.5754   -0.5789 C   0  0  1  0  0  0  0  0  0  0  0  0
   11.9918    3.8577   -1.9807 C   0  0  0  0  0  0  0  0  0  0  0  0
    9.9984    3.4345   -0.6060 N   0  0  0  0  0  0  0  0  0  0  0  0
    9.2298    3.4848    0.6007 C   0  0  0  0  0  0  0  0  0  0  0  0
    9.1415    2.4574    1.3283 O   0  0  0  0  0  0  0  0  0  0  0  0
    8.4507    4.7222    0.9692 C   0  0  1  0  0  0  0  0  0  0  0  0
    9.3125    5.9862    0.9181 C   0  0  0  0  0  0  0  0  0  0  0  0
    7.2470    4.8398    0.1408 N   0  0  0  0  0  0  0  0  0  0  0  0
    7.2681    4.8862   -1.2893 C   0  0  0  0  0  0  0  0  0  0  0  0
    6.9274    3.8642   -1.9440 O   0  0  0  0  0  0  0  0  0  0  0  0
    7.5241    6.1930   -2.0100 C   0  0  1  0  0  0  0  0  0  0  0  0
    8.3122    5.9503   -3.3059 C   0  0  0  0  0  0  0  0  0  0  0  0
    6.2682    6.8790   -2.3233 N   0  0  0  0  0  0  0  0  0  0  0  0
    5.1587    6.8928   -1.4160 C   0  0  0  0  0  0  0  0  0  0  0  0
    5.3549    7.1852   -0.1977 O   0  0  0  0  0  0  0  0  0  0  0  0
    0.2273   -3.7649   -1.1725 C   0  0  0  0  0  0  0  0  0  0  0  0
    1.3085   -3.4113   -1.7154 O   0  0  0  0  0  0  0  0  0  0  0  0
   -0.4024   -4.9690   -1.6419 N   0  0  0  0  0  0  0  0  0  0  0  0
   -1.6983   -5.5114   -1.1998 C   0  0  2  0  0  0  0  0  0  0  0  0
   -1.5677   -7.0198   -1.0201 C   0  0  0  0  0  0  0  0  0  0  0  0
   -2.7783   -5.1490   -2.1944 C   0  0  0  0  0  0  0  0  0  0  0  0
   -2.4770   -4.6221   -3.2944 O   0  0  0  0  0  0  0  0  0  0  0  0
   -4.1593   -5.2781   -1.8479 N   0  0  0  0  0  0  0  0  0  0  0  0
   -4.8468   -6.5693   -1.8442 C   0  0  2  0  0  0  0  0  0  0  0  0
   -5.8318   -6.6344   -3.0151 C   0  0  0  0  0  0  0  0  0  0  0  0
   -5.5677   -6.7935   -0.5388 C   0  0  0  0  0  0  0  0  0  0  0  0
   -5.2539   -7.7907    0.1755 O   0  0  0  0  0  0  0  0  0  0  0  0
   -6.6868   -5.9874   -0.1544 N   0  0  0  0  0  0  0  0  0  0  0  0
   -6.5018   -4.6402    0.3966 C   0  0  2  0  0  0  0  0  0  0  0  0
   -6.7219   -4.6192    1.9127 C   0  0  0  0  0  0  0  0  0  0  0  0
   -7.3355   -3.6242   -0.3533 C   0  0  0  0  0  0  0  0  0  0  0  0
   -6.7317   -2.8353   -1.1280 O   0  0  0  0  0  0  0  0  0  0  0  0
   -8.7528   -3.4403   -0.1693 N   0  0  0  0  0  0  0  0  0  0  0  0
   -9.7361   -4.4768    0.1596 C   0  0  2  0  0  0  0  0  0  0  0  0
  -10.3309   -5.0399   -1.1365 C   0  0  0  0  0  0  0  0  0  0  0  0
  -10.7700   -3.8683    1.0827 C   0  0  0  0  0  0  0  0  0  0  0  0
  -10.3836   -3.3936    2.1826 O   0  0  0  0  0  0  0  0  0  0  0  0
  -12.1470   -3.7275    0.7029 N   0  0  0  0  0  0  0  0  0  0  0  0
  -12.9546   -2.6058    1.1903 C   0  0  2  0  0  0  0  0  0  0  0  0
  -14.4251   -2.7663    0.8064 C   0  0  0  0  0  0  0  0  0  0  0  0
  -12.4089   -1.3135    0.6505 C   0  0  0  0  0  0  0  0  0  0  0  0
  -11.8729   -0.4867    1.4419 O   0  0  0  0  0  0  0  0  0  0  0  0
  -12.4688   -1.0257   -0.7462 N   0  0  0  0  0  0  0  0  0  0  0  0
  -13.2372    0.1004   -1.2692 C   0  0  2  0  0  0  0  0  0  0  0  0
  -14.0273   -0.3396   -2.5038 C   0  0  0  0  0  0  0  0  0  0  0  0
  -12.3271    1.2491   -1.6161 C   0  0  0  0  0  0  0  0  0  0  0  0
  -11.4467    1.1027   -2.5077 O   0  0  0  0  0  0  0  0  0  0  0  0
  -12.4887    2.5333   -0.9967 N   0  0  0  0  0  0  0  0  0  0  0  0
  -12.4066    2.7034    0.4603 C   0  0  2  0  0  0  0  0  0  0  0  0
  -13.2294    3.9173    0.8952 C   0  0  0  0  0  0  0  0  0  0  0  0
  -10.9642    2.7275    0.8871 C   0  0  0  0  0  0  0  0  0  0  0  0
  -10.2326    1.7325    0.6134 O   0  0  0  0  0  0  0  0  0  0  0  0
  -10.3952    3.7833    1.6744 N   0  0  0  0  0  0  0  0  0  0  0  0
  -10.2275    5.1739    1.2160 C   0  0  2  0  0  0  0  0  0  0  0  0
   -9.9254    5.2456   -0.2899 C   0  0  0  0  0  0  0  0  0  0  0  0
   -9.0973    5.8298    1.9700 C   0  0  0  0  0  0  0  0  0  0  0  0
   -9.3357    6.8415    2.6830 O   0  0  0  0  0  0  0  0  0  0  0  0
   -7.7663    5.2894    1.8695 N   0  0  0  0  0  0  0  0  0  0  0  0
   -6.5067    6.0625    1.7746 C   0  0  2  0  0  0  0  0  0  0  0  0
   -6.7089    7.5822    1.8757 C   0  0  0  0  0  0  0  0  0  0  0  0
   -5.8029    5.7342    0.4689 C   0  0  0  0  0  0  0  0  0  0  0  0
   -6.4572    5.2047   -0.4685 O   0  0  0  0  0  0  0  0  0  0  0  0
   -4.4256    6.0692    0.2290 N   0  0  0  0  0  0  0  0  0  0  0  0
   -3.4251    6.3725    1.2625 C   0  0  2  0  0  0  0  0  0  0  0  0
   -2.8759    7.7630    1.0352 C   0  0  0  0  0  0  0  0  0  0  0  0
   -2.9463    8.7455    2.0686 N   0  0  0  0  0  0  0  0  0  0  0  0
   -2.3740    8.0667   -0.0822 O   0  0  0  0  0  0  0  0  0  0  0  0
   -2.3072    5.3213    1.2359 C   0  0  0  0  0  0  0  0  0  0  0  0
   -3.0350    3.6533    1.4169 S   0  0  0  0  0  0  0  0  0  0  0  0
   -1.5286    2.8204    2.0173 C   0  0  0  0  0  0  0  0  0  0  0  0
    2.1990    9.0243   -2.6566 H   0  0  0  0  0  0  0  0  0  0  0  0
    3.0592   10.0190   -3.8836 H   0  0  0  0  0  0  0  0  0  0  0  0
    3.9745    9.3570   -2.4752 H   0  0  0  0  0  0  0  0  0  0  0  0
    3.8409    5.8007   -3.9387 H   0  0  0  0  0  0  0  0  0  0  0  0
    3.0264    7.1392   -1.3812 H   0  0  0  0  0  0  0  0  0  0  0  0
    2.5144    4.7202   -1.9063 H   0  0  0  0  0  0  0  0  0  0  0  0
    4.2746    4.3664   -1.8497 H   0  0  0  0  0  0  0  0  0  0  0  0
    3.5460    2.7387    1.4151 H   0  0  0  0  0  0  0  0  0  0  0  0
    3.9141    2.6247   -0.3357 H   0  0  0  0  0  0  0  0  0  0  0  0
    1.0850    3.6037    1.9905 H   0  0  0  0  0  0  0  0  0  0  0  0
   -1.8688    1.5216   -0.3412 H   0  0  0  0  0  0  0  0  0  0  0  0
    2.2519    1.4771   -1.5604 H   0  0  0  0  0  0  0  0  0  0  0  0
    0.7493    0.0612   -2.6684 H   0  0  0  0  0  0  0  0  0  0  0  0
   -0.7131    1.0548   -3.0304 H   0  0  0  0  0  0  0  0  0  0  0  0
    0.8780   -1.1900   -0.4920 H   0  0  0  0  0  0  0  0  0  0  0  0
   -0.5240   -0.8797    0.5978 H   0  0  0  0  0  0  0  0  0  0  0  0
   -1.3581   -3.1476    0.2186 H   0  0  0  0  0  0  0  0  0  0  0  0
    1.0758   -2.5041    1.6418 H   0  0  0  0  0  0  0  0  0  0  0  0
    2.7135   -4.4896    1.8106 H   0  0  0  0  0  0  0  0  0  0  0  0
    2.9133   -4.9029    4.2909 H   0  0  0  0  0  0  0  0  0  0  0  0
    1.9346   -3.4458    3.8934 H   0  0  0  0  0  0  0  0  0  0  0  0
    1.1144   -4.9706    4.3993 H   0  0  0  0  0  0  0  0  0  0  0  0
    1.3884   -7.0355    2.8206 H   0  0  0  0  0  0  0  0  0  0  0  0
    4.7905   -7.6309    0.5669 H   0  0  0  0  0  0  0  0  0  0  0  0
    2.6149   -7.3499   -0.6419 H   0  0  0  0  0  0  0  0  0  0  0  0
    3.9265   -6.3469   -1.3578 H   0  0  0  0  0  0  0  0  0  0  0  0
    2.6700   -5.5699   -0.3333 H   0  0  0  0  0  0  0  0  0  0  0  0
    4.8661   -4.9819    1.8723 H   0  0  0  0  0  0  0  0  0  0  0  0
    6.4436   -7.1028   -0.7589 H   0  0  0  0  0  0  0  0  0  0  0  0
    8.2799   -4.7829   -1.5836 H   0  0  0  0  0  0  0  0  0  0  0  0
    6.8338   -5.3771   -2.4869 H   0  0  0  0  0  0  0  0  0  0  0  0
    8.2579   -6.4569   -2.2683 H   0  0  0  0  0  0  0  0  0  0  0  0
    7.6961   -6.8794    1.4665 H   0  0  0  0  0  0  0  0  0  0  0  0
    9.7199   -4.3377    0.5494 H   0  0  0  0  0  0  0  0  0  0  0  0
   10.4444   -4.4134    2.9766 H   0  0  0  0  0  0  0  0  0  0  0  0
   10.1273   -6.1949    2.9798 H   0  0  0  0  0  0  0  0  0  0  0  0
    8.7831   -5.0184    2.6900 H   0  0  0  0  0  0  0  0  0  0  0  0
   12.1497   -6.0439    1.2636 H   0  0  0  0  0  0  0  0  0  0  0  0
   12.0130   -2.6787    1.5212 H   0  0  0  0  0  0  0  0  0  0  0  0
   14.3737   -2.8621    2.4798 H   0  0  0  0  0  0  0  0  0  0  0  0
   14.6018   -4.3297    1.4528 H   0  0  0  0  0  0  0  0  0  0  0  0
   13.3262   -4.2960    2.7399 H   0  0  0  0  0  0  0  0  0  0  0  0
   14.3605   -2.4630   -0.4201 H   0  0  0  0  0  0  0  0  0  0  0  0
   11.1015   -0.9263    0.3772 H   0  0  0  0  0  0  0  0  0  0  0  0
   12.8214    0.7153    2.3506 H   0  0  0  0  0  0  0  0  0  0  0  0
   11.9514   -0.8068    2.6653 H   0  0  0  0  0  0  0  0  0  0  0  0
   11.0156    0.6878    2.3609 H   0  0  0  0  0  0  0  0  0  0  0  0
   10.8464    0.9096   -0.9948 H   0  0  0  0  0  0  0  0  0  0  0  0
   11.7135    4.4427    0.0686 H   0  0  0  0  0  0  0  0  0  0  0  0
   11.5684    4.8102   -2.3598 H   0  0  0  0  0  0  0  0  0  0  0  0
   11.7220    3.0357   -2.6844 H   0  0  0  0  0  0  0  0  0  0  0  0
   13.1004    3.9513   -1.9480 H   0  0  0  0  0  0  0  0  0  0  0  0
    9.5402    2.9941   -1.4363 H   0  0  0  0  0  0  0  0  0  0  0  0
    8.1254    4.6109    2.0307 H   0  0  0  0  0  0  0  0  0  0  0  0
   10.0891    5.9420    1.7105 H   0  0  0  0  0  0  0  0  0  0  0  0
    8.6864    6.8821    1.1025 H   0  0  0  0  0  0  0  0  0  0  0  0
    9.8239    6.0912   -0.0606 H   0  0  0  0  0  0  0  0  0  0  0  0
    6.3571    4.5090    0.5754 H   0  0  0  0  0  0  0  0  0  0  0  0
    8.1374    6.8698   -1.3698 H   0  0  0  0  0  0  0  0  0  0  0  0
    7.6814    5.3981   -4.0370 H   0  0  0  0  0  0  0  0  0  0  0  0
    8.6053    6.9290   -3.7538 H   0  0  0  0  0  0  0  0  0  0  0  0
    9.2299    5.3635   -3.0968 H   0  0  0  0  0  0  0  0  0  0  0  0
    6.3347    7.7239   -2.9464 H   0  0  0  0  0  0  0  0  0  0  0  0
    0.0509   -5.4392   -2.4619 H   0  0  0  0  0  0  0  0  0  0  0  0
   -1.9906   -5.1038   -0.2222 H   0  0  0  0  0  0  0  0  0  0  0  0
   -0.6454   -7.2521   -0.4441 H   0  0  0  0  0  0  0  0  0  0  0  0
   -1.5118   -7.5334   -2.0024 H   0  0  0  0  0  0  0  0  0  0  0  0
   -2.4290   -7.4120   -0.4388 H   0  0  0  0  0  0  0  0  0  0  0  0
   -4.7432   -4.4155   -1.9533 H   0  0  0  0  0  0  0  0  0  0  0  0
   -4.1134   -7.3943   -1.9951 H   0  0  0  0  0  0  0  0  0  0  0  0
   -5.2736   -6.5654   -3.9762 H   0  0  0  0  0  0  0  0  0  0  0  0
   -6.3830   -7.6016   -3.0031 H   0  0  0  0  0  0  0  0  0  0  0  0
   -6.5617   -5.7999   -2.9624 H   0  0  0  0  0  0  0  0  0  0  0  0
   -7.5888   -6.4889   -0.0045 H   0  0  0  0  0  0  0  0  0  0  0  0
   -5.4346   -4.3503    0.2625 H   0  0  0  0  0  0  0  0  0  0  0  0
   -7.7507   -4.9185    2.1977 H   0  0  0  0  0  0  0  0  0  0  0  0
   -6.5206   -3.6051    2.3181 H   0  0  0  0  0  0  0  0  0  0  0  0
   -6.0216   -5.3330    2.3980 H   0  0  0  0  0  0  0  0  0  0  0  0
   -9.1424   -2.5444   -0.5398 H   0  0  0  0  0  0  0  0  0  0  0  0
   -9.2766   -5.3188    0.7057 H   0  0  0  0  0  0  0  0  0  0  0  0
   -9.5138   -5.4397   -1.7716 H   0  0  0  0  0  0  0  0  0  0  0  0
  -10.8616   -4.2398   -1.6981 H   0  0  0  0  0  0  0  0  0  0  0  0
  -11.0356   -5.8738   -0.9178 H   0  0  0  0  0  0  0  0  0  0  0  0
  -12.6225   -4.5303    0.2195 H   0  0  0  0  0  0  0  0  0  0  0  0
  -12.9023   -2.5873    2.3044 H   0  0  0  0  0  0  0  0  0  0  0  0
  -14.5390   -2.8407   -0.2964 H   0  0  0  0  0  0  0  0  0  0  0  0
  -14.8431   -3.6895    1.2679 H   0  0  0  0  0  0  0  0  0  0  0  0
  -15.0166   -1.8970    1.1669 H   0  0  0  0  0  0  0  0  0  0  0  0
  -11.8962   -1.6181   -1.3960 H   0  0  0  0  0  0  0  0  0  0  0  0
  -13.9784    0.4267   -0.5039 H   0  0  0  0  0  0  0  0  0  0  0  0
  -14.7350   -1.1481   -2.2332 H   0  0  0  0  0  0  0  0  0  0  0  0
  -14.6092    0.5156   -2.9049 H   0  0  0  0  0  0  0  0  0  0  0  0
  -13.3419   -0.7091   -3.2968 H   0  0  0  0  0  0  0  0  0  0  0  0
  -12.2905    3.3702   -1.5959 H   0  0  0  0  0  0  0  0  0  0  0  0
  -12.8792    1.8224    0.9546 H   0  0  0  0  0  0  0  0  0  0  0  0
  -14.3119    3.7170    0.7290 H   0  0  0  0  0  0  0  0  0  0  0  0
  -12.9656    4.8227    0.3049 H   0  0  0  0  0  0  0  0  0  0  0  0
  -13.0845    4.1233    1.9787 H   0  0  0  0  0  0  0  0  0  0  0  0
   -9.8363    3.4680    2.5029 H   0  0  0  0  0  0  0  0  0  0  0  0
  -11.1503    5.7365    1.4191 H   0  0  0  0  0  0  0  0  0  0  0  0
  -10.8332    5.0212   -0.8717 H   0  0  0  0  0  0  0  0  0  0  0  0
   -9.6041    6.2733   -0.5704 H   0  0  0  0  0  0  0  0  0  0  0  0
   -9.1267    4.5307   -0.5705 H   0  0  0  0  0  0  0  0  0  0  0  0
   -7.6766    4.2595    1.7335 H   0  0  0  0  0  0  0  0  0  0  0  0
   -5.8826    5.7294    2.6261 H   0  0  0  0  0  0  0  0  0  0  0  0
   -5.7461    8.1126    1.7257 H   0  0  0  0  0  0  0  0  0  0  0  0
   -7.0710    7.8542    2.8909 H   0  0  0  0  0  0  0  0  0  0  0  0
   -7.4263    7.9357    1.1040 H   0  0  0  0  0  0  0  0  0  0  0  0
   -4.0772    5.9745   -0.7533 H   0  0  0  0  0  0  0  0  0  0  0  0
   -3.8698    6.3466    2.2788 H   0  0  0  0  0  0  0  0  0  0  0  0
   -2.7225    9.7417    1.8677 H   0  0  0  0  0  0  0  0  0  0  0  0
   -3.3043    8.4962    3.0197 H   0  0  0  0  0  0  0  0  0  0  0  0
   -1.7531    5.3713    0.2761 H   0  0  0  0  0  0  0  0  0  0  0  0
   -1.5969    5.5264    2.0709 H   0  0  0  0  0  0  0  0  0  0  0  0
   -1.0985    3.3667    2.8852 H   0  0  0  0  0  0  0  0  0  0  0  0
   -1.8263    1.8194    2.4063 H   0  0  0  0  0  0  0  0  0  0  0  0
  1  2  1  0
  2  3  2  0
  2  4  1  0
  4  5  1  0
  5  6  1  0
  6  7  1  0
  7  8  1  0
  8  9  1  0
  9 10  2  0
 10 11  1  0
 11 12  2  0
 12 13  1  0
 13 14  2  0
 13 15  1  0
 15 16  1  0
 16 17  1  0
 17 18  1  0
 18 19  1  0
 19 20  1  0
 20 21  2  0
 20 22  1  0
 22 23  1  0
 22 24  1  0
 24 25  1  0
 25 26  2  0
 25 27  1  0
 27 28  1  0
 27 29  1  0
 29 30  1  0
 30 31  2  0
 30 32  1  0
 32 33  1  0
 32 34  1  0
 34 35  1  0
 35 36  2  0
 35 37  1  0
 37 38  1  0
 37 39  1  0
 39 40  1  0
 40 41  2  0
 40 42  1  0
 42 43  1  0
 42 44  1  0
 44 45  1  0
 45 46  2  0
 45 47  1  0
 47 48  1  0
 47 49  1  0
 49 50  1  0
 50 51  2  0
 50 52  1  0
 52 53  1  0
 52 54  1  0
 54 55  1  0
 55 56  2  0
 55 57  1  0
 57 58  1  0
 57 59  1  0
 59 60  1  0
 60 61  2  0
 60 62  1  0
 62 63  1  0
 62 64  1  0
 64 65  1  0
 65 66  2  0
 18 67  1  0
 67 68  2  0
 67 69  1  0
 69 70  1  0
 70 71  1  0
 70 72  1  0
 72 73  2  0
 72 74  1  0
 74 75  1  0
 75 76  1  0
 75 77  1  0
 77 78  2  0
 77 79  1  0
 79 80  1  0
 80 81  1  0
 80 82  1  0
 82 83  2  0
 82 84  1  0
 84 85  1  0
 85 86  1  0
 85 87  1  0
 87 88  2  0
 87 89  1  0
 89 90  1  0
 90 91  1  0
 90 92  1  0
 92 93  2  0
 92 94  1  0
 94 95  1  0
 95 96  1  0
 95 97  1  0
 97 98  2  0
 97 99  1  0
 99100  1  0
100101  1  0
100102  1  0
102103  2  0
102104  1  0
104105  1  0
105106  1  0
105107  1  0
107108  2  0
107109  1  0
109110  1  0
110111  1  0
110112  1  0
112113  2  0
112114  1  0
114115  1  0
115116  1  0
116117  1  0
116118  2  0
115119  1  0
119120  1  0
120121  1  0
 65  5  1  0
 14  9  1  0
121 11  1  0
  1122  1  0
  1123  1  0
  1124  1  0
  4125  1  0
  5126  1  1
  6127  1  0
  6128  1  0
  8129  1  0
  8130  1  0
 10131  1  0
 12132  1  0
 14133  1  0
 15134  1  0
 15135  1  0
 17136  1  0
 17137  1  0
 18138  1  1
 19139  1  0
 22140  1  6
 23141  1  0
 23142  1  0
 23143  1  0
 24144  1  0
 27145  1  6
 28146  1  0
 28147  1  0
 28148  1  0
 29149  1  0
 32150  1  6
 33151  1  0
 33152  1  0
 33153  1  0
 34154  1  0
 37155  1  6
 38156  1  0
 38157  1  0
 38158  1  0
 39159  1  0
 42160  1  1
 43161  1  0
 43162  1  0
 43163  1  0
 44164  1  0
 47165  1  1
 48166  1  0
 48167  1  0
 48168  1  0
 49169  1  0
 52170  1  1
 53171  1  0
 53172  1  0
 53173  1  0
 54174  1  0
 57175  1  1
 58176  1  0
 58177  1  0
 58178  1  0
 59179  1  0
 62180  1  1
 63181  1  0
 63182  1  0
 63183  1  0
 64184  1  0
 69185  1  0
 70186  1  1
 71187  1  0
 71188  1  0
 71189  1  0
 74190  1  0
 75191  1  6
 76192  1  0
 76193  1  0
 76194  1  0
 79195  1  0
 80196  1  1
 81197  1  0
 81198  1  0
 81199  1  0
 84200  1  0
 85201  1  1
 86202  1  0
 86203  1  0
 86204  1  0
 89205  1  0
 90206  1  1
 91207  1  0
 91208  1  0
 91209  1  0
 94210  1  0
 95211  1  1
 96212  1  0
 96213  1  0
 96214  1  0
 99215  1  0
100216  1  1
101217  1  0
101218  1  0
101219  1  0
104220  1  0
105221  1  6
106222  1  0
106223  1  0
106224  1  0
109225  1  0
110226  1  1
111227  1  0
111228  1  0
111229  1  0
114230  1  0
115231  1  1
117232  1  0
117233  1  0
119234  1  0
119235  1  0
121236  1  0
121237  1  0
M  END
