
     RDKit          3D

187189  0  0  0  0  0  0  0  0999 V2000
    1.0948    9.9059   -0.4870 C   0  0  0  0  0  0  0  0  0  0  0  0
    1.8766    8.9761    0.3837 C   0  0  0  0  0  0  0  0  0  0  0  0
    2.7734    9.4449    1.1305 O   0  0  0  0  0  0  0  0  0  0  0  0
    1.6573    7.5599    0.3598 N   0  0  0  0  0  0  0  0  0  0  0  0
    0.4967    6.9211   -0.2758 C   0  0  1  0  0  0  0  0  0  0  0  0
    0.7532    5.4173   -0.4701 C   0  0  0  0  0  0  0  0  0  0  0  0
    1.9891    5.1802   -1.7923 S   0  0  0  0  0  0  0  0  0  0  0  0
    2.0908    3.3548   -1.6726 C   0  0  0  0  0  0  0  0  0  0  0  0
    2.7346    2.8948   -0.3879 C   0  0  0  0  0  0  0  0  0  0  0  0
    2.1771    1.8299    0.3412 C   0  0  0  0  0  0  0  0  0  0  0  0
    2.8020    1.3591    1.5054 C   0  0  0  0  0  0  0  0  0  0  0  0
    3.9790    1.9858    1.9560 C   0  0  0  0  0  0  0  0  0  0  0  0
    4.5481    3.0541    1.2450 C   0  0  0  0  0  0  0  0  0  0  0  0
    3.9158    3.5005    0.0719 C   0  0  0  0  0  0  0  0  0  0  0  0
    5.7357    3.7812    1.8296 C   0  0  0  0  0  0  0  0  0  0  0  0
    6.8318    4.5256    0.5635 S   0  0  0  0  0  0  0  0  0  0  0  0
    7.6296    2.9612    0.0592 C   0  0  0  0  0  0  0  0  0  0  0  0
    8.5491    3.1623   -1.1657 C   0  0  1  0  0  0  0  0  0  0  0  0
    9.5405    4.2714   -0.9217 C   0  0  0  0  0  0  0  0  0  0  0  0
    9.6150    5.3838   -1.8128 N   0  0  0  0  0  0  0  0  0  0  0  0
   10.3082    4.2219    0.0756 O   0  0  0  0  0  0  0  0  0  0  0  0
    9.2878    1.9359   -1.5162 N   0  0  0  0  0  0  0  0  0  0  0  0
    8.9542    0.6286   -1.0400 C   0  0  0  0  0  0  0  0  0  0  0  0
    7.8117    0.1557   -1.2714 O   0  0  0  0  0  0  0  0  0  0  0  0
    9.9784   -0.2120   -0.3189 C   0  0  1  0  0  0  0  0  0  0  0  0
   11.0429    0.6512    0.3747 C   0  0  0  0  0  0  0  0  0  0  0  0
    9.3106   -1.0474    0.6898 N   0  0  0  0  0  0  0  0  0  0  0  0
    9.2528   -2.4857    0.6746 C   0  0  0  0  0  0  0  0  0  0  0  0
    8.8731   -3.0842    1.7237 O   0  0  0  0  0  0  0  0  0  0  0  0
    9.6441   -3.3021   -0.5350 C   0  0  1  0  0  0  0  0  0  0  0  0
   11.1317   -3.6737   -0.4395 C   0  0  0  0  0  0  0  0  0  0  0  0
    8.8232   -4.5194   -0.6293 N   0  0  0  0  0  0  0  0  0  0  0  0
    7.4858   -4.5501   -1.1612 C   0  0  0  0  0  0  0  0  0  0  0  0
    6.9566   -5.6688   -1.4124 O   0  0  0  0  0  0  0  0  0  0  0  0
    6.7225   -3.2885   -1.4895 C   0  0  1  0  0  0  0  0  0  0  0  0
    6.8711   -2.9585   -2.9770 C   0  0  0  0  0  0  0  0  0  0  0  0
    5.3034   -3.4313   -1.1326 N   0  0  0  0  0  0  0  0  0  0  0  0
    4.8632   -3.5448    0.2319 C   0  0  0  0  0  0  0  0  0  0  0  0
    5.6995   -3.8048    1.1387 O   0  0  0  0  0  0  0  0  0  0  0  0
    3.4484   -3.2011    0.6303 C   0  0  1  0  0  0  0  0  0  0  0  0
    3.3607   -1.6834    0.8698 C   0  0  0  0  0  0  0  0  0  0  0  0
    1.6728   -1.1907    1.3779 S   0  0  0  0  0  0  0  0  0  0  0  0
    2.1526    0.2853    2.3453 C   0  0  0  0  0  0  0  0  0  0  0  0
    2.4934   -3.6222   -0.3972 N   0  0  0  0  0  0  0  0  0  0  0  0
    1.4005   -4.5010   -0.0992 C   0  0  0  0  0  0  0  0  0  0  0  0
    0.2858   -4.0068    0.2331 O   0  0  0  0  0  0  0  0  0  0  0  0
    1.5408   -5.9971   -0.2149 C   0  0  1  0  0  0  0  0  0  0  0  0
    2.3655   -6.3871   -1.4462 C   0  0  0  0  0  0  0  0  0  0  0  0
    2.1649   -6.5424    0.9930 N   0  0  0  0  0  0  0  0  0  0  0  0
    1.6975   -7.7616    1.5913 C   0  0  0  0  0  0  0  0  0  0  0  0
    2.4447   -8.7759    1.5654 O   0  0  0  0  0  0  0  0  0  0  0  0
    0.3588   -7.8594    2.2901 C   0  0  1  0  0  0  0  0  0  0  0  0
    0.5737   -8.0866    3.7875 C   0  0  0  0  0  0  0  0  0  0  0  0
   -0.4309   -6.6375    2.1075 N   0  0  0  0  0  0  0  0  0  0  0  0
   -1.8233   -6.5819    1.7385 C   0  0  0  0  0  0  0  0  0  0  0  0
   -2.4636   -5.5272    2.0082 O   0  0  0  0  0  0  0  0  0  0  0  0
   -2.5514   -7.7419    1.0849 C   0  0  1  0  0  0  0  0  0  0  0  0
   -3.2855   -8.6031    2.1190 C   0  0  0  0  0  0  0  0  0  0  0  0
   -3.4631   -7.2707    0.0264 N   0  0  0  0  0  0  0  0  0  0  0  0
   -4.5996   -6.4038    0.2344 C   0  0  0  0  0  0  0  0  0  0  0  0
   -5.1305   -6.3246    1.3757 O   0  0  0  0  0  0  0  0  0  0  0  0
   -5.2071   -5.5969   -0.8930 C   0  0  1  0  0  0  0  0  0  0  0  0
   -4.2348   -5.3706   -2.0616 C   0  0  0  0  0  0  0  0  0  0  0  0
   -6.4272   -6.2508   -1.3719 N   0  0  0  0  0  0  0  0  0  0  0  0
   -7.5955   -5.5615   -1.8563 C   0  0  0  0  0  0  0  0  0  0  0  0
   -8.6391   -6.2322   -2.0800 O   0  0  0  0  0  0  0  0  0  0  0  0
   -7.6395   -4.0610   -2.0350 C   0  0  1  0  0  0  0  0  0  0  0  0
   -8.4180   -3.6709   -3.3024 C   0  0  0  0  0  0  0  0  0  0  0  0
   -8.1851   -3.4376   -0.8243 N   0  0  0  0  0  0  0  0  0  0  0  0
   -9.4992   -2.8820   -0.7348 C   0  0  0  0  0  0  0  0  0  0  0  0
  -10.4870   -3.6462   -0.5496 O   0  0  0  0  0  0  0  0  0  0  0  0
   -9.6917   -1.3892   -0.7742 C   0  0  1  0  0  0  0  0  0  0  0  0
  -10.7578   -1.0261   -1.8183 C   0  0  0  0  0  0  0  0  0  0  0  0
  -10.0758   -0.8936    0.5515 N   0  0  0  0  0  0  0  0  0  0  0  0
   -9.9528    0.4671    1.0071 C   0  0  0  0  0  0  0  0  0  0  0  0
  -10.2585    0.7262    2.2066 O   0  0  0  0  0  0  0  0  0  0  0  0
   -9.5709    1.6178    0.0962 C   0  0  1  0  0  0  0  0  0  0  0  0
  -10.8322    2.4366   -0.2231 C   0  0  0  0  0  0  0  0  0  0  0  0
   -8.5618    2.4734    0.7414 N   0  0  0  0  0  0  0  0  0  0  0  0
   -8.0305    3.6365    0.0912 C   0  0  0  0  0  0  0  0  0  0  0  0
   -7.9511    3.6673   -1.1698 O   0  0  0  0  0  0  0  0  0  0  0  0
   -7.5026    4.8044    0.8914 C   0  0  1  0  0  0  0  0  0  0  0  0
   -8.4188    5.1030    2.0894 C   0  0  0  0  0  0  0  0  0  0  0  0
   -6.1356    4.5226    1.3408 N   0  0  0  0  0  0  0  0  0  0  0  0
   -5.1230    5.5200    1.5765 C   0  0  0  0  0  0  0  0  0  0  0  0
   -3.9760    5.1340    1.9337 O   0  0  0  0  0  0  0  0  0  0  0  0
   -5.3892    7.0040    1.4123 C   0  0  1  0  0  0  0  0  0  0  0  0
   -4.4751    7.8800    2.2858 C   0  0  0  0  0  0  0  0  0  0  0  0
   -5.3601    7.4097   -0.0010 N   0  0  0  0  0  0  0  0  0  0  0  0
   -4.1959    7.8477   -0.7239 C   0  0  0  0  0  0  0  0  0  0  0  0
   -4.2726    8.8999   -1.4178 O   0  0  0  0  0  0  0  0  0  0  0  0
   -2.9048    7.0671   -0.7155 C   0  0  1  0  0  0  0  0  0  0  0  0
   -2.4529    6.7974   -2.1565 C   0  0  0  0  0  0  0  0  0  0  0  0
   -1.8691    7.8061    0.0166 N   0  0  0  0  0  0  0  0  0  0  0  0
   -0.7264    7.1410    0.5651 C   0  0  0  0  0  0  0  0  0  0  0  0
   -0.7318    6.7957    1.7781 O   0  0  0  0  0  0  0  0  0  0  0  0
    0.0266    9.9056   -0.1873 H   0  0  0  0  0  0  0  0  0  0  0  0
    1.1902    9.5955   -1.5488 H   0  0  0  0  0  0  0  0  0  0  0  0
    1.4850   10.9465   -0.3969 H   0  0  0  0  0  0  0  0  0  0  0  0
    2.3496    6.9612    0.8651 H   0  0  0  0  0  0  0  0  0  0  0  0
    0.3280    7.3729   -1.2787 H   0  0  0  0  0  0  0  0  0  0  0  0
   -0.1856    4.8980   -0.7676 H   0  0  0  0  0  0  0  0  0  0  0  0
    1.1131    4.9622    0.4776 H   0  0  0  0  0  0  0  0  0  0  0  0
    1.0716    2.9284   -1.7987 H   0  0  0  0  0  0  0  0  0  0  0  0
    2.7161    2.9877   -2.5125 H   0  0  0  0  0  0  0  0  0  0  0  0
    1.2529    1.3798    0.0027 H   0  0  0  0  0  0  0  0  0  0  0  0
    4.4319    1.6625    2.8847 H   0  0  0  0  0  0  0  0  0  0  0  0
    4.3329    4.3317   -0.4815 H   0  0  0  0  0  0  0  0  0  0  0  0
    5.3536    4.5979    2.4754 H   0  0  0  0  0  0  0  0  0  0  0  0
    6.3380    3.0980    2.4647 H   0  0  0  0  0  0  0  0  0  0  0  0
    8.2137    2.5667    0.9172 H   0  0  0  0  0  0  0  0  0  0  0  0
    6.8307    2.2343   -0.1936 H   0  0  0  0  0  0  0  0  0  0  0  0
    7.9090    3.4333   -2.0329 H   0  0  0  0  0  0  0  0  0  0  0  0
   10.3128    6.1450   -1.6549 H   0  0  0  0  0  0  0  0  0  0  0  0
    8.9516    5.4741   -2.6137 H   0  0  0  0  0  0  0  0  0  0  0  0
   10.1256    2.0229   -2.1354 H   0  0  0  0  0  0  0  0  0  0  0  0
   10.5087   -0.8272   -1.0722 H   0  0  0  0  0  0  0  0  0  0  0  0
   10.5628    1.3945    1.0541 H   0  0  0  0  0  0  0  0  0  0  0  0
   11.6608    1.1887   -0.3766 H   0  0  0  0  0  0  0  0  0  0  0  0
   11.7152    0.0060    0.9772 H   0  0  0  0  0  0  0  0  0  0  0  0
    8.8674   -0.5573    1.5020 H   0  0  0  0  0  0  0  0  0  0  0  0
    9.5014   -2.7150   -1.4614 H   0  0  0  0  0  0  0  0  0  0  0  0
   11.4404   -4.2275   -1.3557 H   0  0  0  0  0  0  0  0  0  0  0  0
   11.7575   -2.7647   -0.3534 H   0  0  0  0  0  0  0  0  0  0  0  0
   11.3159   -4.3155    0.4483 H   0  0  0  0  0  0  0  0  0  0  0  0
    9.2648   -5.4437   -0.4135 H   0  0  0  0  0  0  0  0  0  0  0  0
    7.1266   -2.4351   -0.9169 H   0  0  0  0  0  0  0  0  0  0  0  0
    6.4212   -3.7600   -3.6053 H   0  0  0  0  0  0  0  0  0  0  0  0
    7.9415   -2.8459   -3.2586 H   0  0  0  0  0  0  0  0  0  0  0  0
    6.3524   -1.9997   -3.2060 H   0  0  0  0  0  0  0  0  0  0  0  0
    4.5836   -3.3315   -1.8855 H   0  0  0  0  0  0  0  0  0  0  0  0
    3.2148   -3.7179    1.5887 H   0  0  0  0  0  0  0  0  0  0  0  0
    4.0913   -1.4043    1.6619 H   0  0  0  0  0  0  0  0  0  0  0  0
    3.6302   -1.1339   -0.0578 H   0  0  0  0  0  0  0  0  0  0  0  0
    1.2381    0.7128    2.8055 H   0  0  0  0  0  0  0  0  0  0  0  0
    2.8209   -0.0380    3.1741 H   0  0  0  0  0  0  0  0  0  0  0  0
    2.4159   -3.0558   -1.2714 H   0  0  0  0  0  0  0  0  0  0  0  0
    0.5272   -6.4331   -0.3459 H   0  0  0  0  0  0  0  0  0  0  0  0
    1.8845   -5.9921   -2.3657 H   0  0  0  0  0  0  0  0  0  0  0  0
    3.3993   -5.9900   -1.3733 H   0  0  0  0  0  0  0  0  0  0  0  0
    2.4150   -7.4961   -1.5295 H   0  0  0  0  0  0  0  0  0  0  0  0
    3.1550   -6.2770    1.1851 H   0  0  0  0  0  0  0  0  0  0  0  0
   -0.1677   -8.7501    1.8972 H   0  0  0  0  0  0  0  0  0  0  0  0
    1.1661   -9.0090    3.9580 H   0  0  0  0  0  0  0  0  0  0  0  0
    1.1127   -7.2232    4.2390 H   0  0  0  0  0  0  0  0  0  0  0  0
   -0.4077   -8.2035    4.2955 H   0  0  0  0  0  0  0  0  0  0  0  0
   -0.0008   -5.7446    2.4426 H   0  0  0  0  0  0  0  0  0  0  0  0
   -1.8100   -8.3921    0.5817 H   0  0  0  0  0  0  0  0  0  0  0  0
   -3.9031   -9.3704    1.6066 H   0  0  0  0  0  0  0  0  0  0  0  0
   -3.9325   -7.9893    2.7800 H   0  0  0  0  0  0  0  0  0  0  0  0
   -2.5484   -9.1286    2.7634 H   0  0  0  0  0  0  0  0  0  0  0  0
   -3.1897   -7.5131   -0.9476 H   0  0  0  0  0  0  0  0  0  0  0  0
   -5.4497   -4.6009   -0.4605 H   0  0  0  0  0  0  0  0  0  0  0  0
   -4.0964   -6.3019   -2.6504 H   0  0  0  0  0  0  0  0  0  0  0  0
   -3.2490   -5.0175   -1.6814 H   0  0  0  0  0  0  0  0  0  0  0  0
   -4.6348   -4.5977   -2.7510 H   0  0  0  0  0  0  0  0  0  0  0  0
   -6.4391   -7.2951   -1.4085 H   0  0  0  0  0  0  0  0  0  0  0  0
   -6.6160   -3.6665   -2.1879 H   0  0  0  0  0  0  0  0  0  0  0  0
   -7.9654   -4.1530   -4.1932 H   0  0  0  0  0  0  0  0  0  0  0  0
   -8.3768   -2.5694   -3.4512 H   0  0  0  0  0  0  0  0  0  0  0  0
   -9.4834   -3.9859   -3.2375 H   0  0  0  0  0  0  0  0  0  0  0  0
   -7.6235   -3.4900    0.0572 H   0  0  0  0  0  0  0  0  0  0  0  0
   -8.7219   -0.9395   -1.0761 H   0  0  0  0  0  0  0  0  0  0  0  0
  -11.7662   -1.3469   -1.4728 H   0  0  0  0  0  0  0  0  0  0  0  0
  -10.7733    0.0634   -2.0101 H   0  0  0  0  0  0  0  0  0  0  0  0
  -10.5395   -1.5255   -2.7860 H   0  0  0  0  0  0  0  0  0  0  0  0
  -10.4355   -1.5829    1.2538 H   0  0  0  0  0  0  0  0  0  0  0  0
   -9.1416    1.2414   -0.8517 H   0  0  0  0  0  0  0  0  0  0  0  0
  -10.6165    3.1947   -1.0046 H   0  0  0  0  0  0  0  0  0  0  0  0
  -11.1950    2.9599    0.6921 H   0  0  0  0  0  0  0  0  0  0  0  0
  -11.6423    1.7752   -0.5963 H   0  0  0  0  0  0  0  0  0  0  0  0
   -8.3258    2.3160    1.7461 H   0  0  0  0  0  0  0  0  0  0  0  0
   -7.5054    5.6910    0.2248 H   0  0  0  0  0  0  0  0  0  0  0  0
   -8.3279    4.3160    2.8657 H   0  0  0  0  0  0  0  0  0  0  0  0
   -9.4766    5.1719    1.7534 H   0  0  0  0  0  0  0  0  0  0  0  0
   -8.1519    6.0723    2.5574 H   0  0  0  0  0  0  0  0  0  0  0  0
   -5.8873    3.5318    1.5697 H   0  0  0  0  0  0  0  0  0  0  0  0
   -6.4086    7.2092    1.7916 H   0  0  0  0  0  0  0  0  0  0  0  0
   -4.6663    8.9530    2.0818 H   0  0  0  0  0  0  0  0  0  0  0  0
   -3.4082    7.6600    2.0977 H   0  0  0  0  0  0  0  0  0  0  0  0
   -4.6774    7.6827    3.3604 H   0  0  0  0  0  0  0  0  0  0  0  0
   -6.2809    7.6807   -0.4197 H   0  0  0  0  0  0  0  0  0  0  0  0
   -3.0708    6.0851   -0.2270 H   0  0  0  0  0  0  0  0  0  0  0  0
   -2.1463    7.7425   -2.6537 H   0  0  0  0  0  0  0  0  0  0  0  0
   -3.2777    6.3307   -2.7360 H   0  0  0  0  0  0  0  0  0  0  0  0
   -1.5946    6.0987   -2.1718 H   0  0  0  0  0  0  0  0  0  0  0  0
   -2.0802    8.7658    0.3833 H   0  0  0  0  0  0  0  0  0  0  0  0
  1  2  1  0
  2  3  2  0
  2  4  1  0
  4  5  1  0
  5  6  1  0
  6  7  1  0
  7  8  1  0
  8  9  1  0
  9 10  2  0
 10 11  1  0
 11 12  2  0
 12 13  1  0
 13 14  2  0
 13 15  1  0
 15 16  1  0
 16 17  1  0
 17 18  1  0
 18 19  1  0
 19 20  1  0
 19 21  2  0
 18 22  1  0
 22 23  1  0
 23 24  2  0
 23 25  1  0
 25 26  1  0
 25 27  1  0
 27 28  1  0
 28 29  2  0
 28 30  1  0
 30 31  1  0
 30 32  1  0
 32 33  1  0
 33 34  2  0
 33 35  1  0
 35 36  1  0
 35 37  1  0
 37 38  1  0
 38 39  2  0
 38 40  1  0
 40 41  1  0
 41 42  1  0
 42 43  1  0
 40 44  1  0
 44 45  1  0
 45 46  2  0
 45 47  1  0
 47 48  1  0
 47 49  1  0
 49 50  1  0
 50 51  2  0
 50 52  1  0
 52 53  1  0
 52 54  1  0
 54 55  1  0
 55 56  2  0
 55 57  1  0
 57 58  1  0
 57 59  1  0
 59 60  1  0
 60 61  2  0
 60 62  1  0
 62 63  1  0
 62 64  1  0
 64 65  1  0
 65 66  2  0
 65 67  1  0
 67 68  1  0
 67 69  1  0
 69 70  1  0
 70 71  2  0
 70 72  1  0
 72 73  1  0
 72 74  1  0
 74 75  1  0
 75 76  2  0
 75 77  1  0
 77 78  1  0
 77 79  1  0
 79 80  1  0
 80 81  2  0
 80 82  1  0
 82 83  1  0
 82 84  1  0
 84 85  1  0
 85 86  2  0
 85 87  1  0
 87 88  1  0
 87 89  1  0
 89 90  1  0
 90 91  2  0
 90 92  1  0
 92 93  1  0
 92 94  1  0
 94 95  1  0
 95 96  2  0
 95  5  1  0
 14  9  1  0
 43 11  1  0
  1 97  1  0
  1 98  1  0
  1 99  1  0
  4100  1  0
  5101  1  6
  6102  1  0
  6103  1  0
  8104  1  0
  8105  1  0
 10106  1  0
 12107  1  0
 14108  1  0
 15109  1  0
 15110  1  0
 17111  1  0
 17112  1  0
 18113  1  6
 20114  1  0
 20115  1  0
 22116  1  0
 25117  1  6
 26118  1  0
 26119  1  0
 26120  1  0
 27121  1  0
 30122  1  6
 31123  1  0
 31124  1  0
 31125  1  0
 32126  1  0
 35127  1  1
 36128  1  0
 36129  1  0
 36130  1  0
 37131  1  0
 40132  1  1
 41133  1  0
 41134  1  0
 43135  1  0
 43136  1  0
 44137  1  0
 47138  1  6
 48139  1  0
 48140  1  0
 48141  1  0
 49142  1  0
 52143  1  6
 53144  1  0
 53145  1  0
 53146  1  0
 54147  1  0
 57148  1  6
 58149  1  0
 58150  1  0
 58151  1  0
 59152  1  0
 62153  1  1
 63154  1  0
 63155  1  0
 63156  1  0
 64157  1  0
 67158  1  6
 68159  1  0
 68160  1  0
 68161  1  0
 69162  1  0
 72163  1  6
 73164  1  0
 73165  1  0
 73166  1  0
 74167  1  0
 77168  1  6
 78169  1  0
 78170  1  0
 78171  1  0
 79172  1  0
 82173  1  6
 83174  1  0
 83175  1  0
 83176  1  0
 84177  1  0
 87178  1  1
 88179  1  0
 88180  1  0
 88181  1  0
 89182  1  0
 92183  1  1
 93184  1  0
 93185  1  0
 93186  1  0
 94187  1  0
M  END
