
     RDKit          3D

247249  0  0  0  0  0  0  0  0999 V2000
    3.1258   -9.0439   -2.3273 C   0  0  0  0  0  0  0  0  0  0  0  0
    4.0954   -7.9643   -1.9801 C   0  0  0  0  0  0  0  0  0  0  0  0
    4.7840   -7.4323   -2.8906 O   0  0  0  0  0  0  0  0  0  0  0  0
    4.2427   -7.5524   -0.6147 N   0  0  0  0  0  0  0  0  0  0  0  0
    5.0834   -6.4191   -0.2051 C   0  0  1  0  0  0  0  0  0  0  0  0
    4.2518   -5.3671    0.5510 C   0  0  0  0  0  0  0  0  0  0  0  0
    3.3674   -6.0584    1.9962 S   0  0  0  0  0  0  0  0  0  0  0  0
    2.6861   -4.4701    2.6062 C   0  0  0  0  0  0  0  0  0  0  0  0
    1.7739   -3.8231    1.5933 C   0  0  0  0  0  0  0  0  0  0  0  0
    0.6781   -4.5269    1.0763 C   0  0  0  0  0  0  0  0  0  0  0  0
   -0.1020   -3.9763    0.0431 C   0  0  0  0  0  0  0  0  0  0  0  0
    0.1537   -2.6584   -0.3818 C   0  0  0  0  0  0  0  0  0  0  0  0
    1.2180   -1.9260    0.1650 C   0  0  0  0  0  0  0  0  0  0  0  0
    2.0319   -2.5195    1.1466 C   0  0  0  0  0  0  0  0  0  0  0  0
    1.4998   -0.5208   -0.2949 C   0  0  0  0  0  0  0  0  0  0  0  0
    1.2623    0.6525    1.0916 S   0  0  0  0  0  0  0  0  0  0  0  0
   -0.1383    1.5986    0.3899 C   0  0  0  0  0  0  0  0  0  0  0  0
    0.3210    2.6506   -0.6394 C   0  0  2  0  0  0  0  0  0  0  0  0
    1.4072    3.4856   -0.1161 N   0  0  0  0  0  0  0  0  0  0  0  0
    2.6928    3.4759   -0.7417 C   0  0  0  0  0  0  0  0  0  0  0  0
    3.5256    2.5773   -0.4356 O   0  0  0  0  0  0  0  0  0  0  0  0
    3.0647    4.5066   -1.7706 C   0  0  1  0  0  0  0  0  0  0  0  0
    2.4190    4.1801   -3.1190 C   0  0  0  0  0  0  0  0  0  0  0  0
    2.6514    5.8447   -1.3328 N   0  0  0  0  0  0  0  0  0  0  0  0
    3.5421    6.8974   -0.9157 C   0  0  0  0  0  0  0  0  0  0  0  0
    3.1697    8.0944   -1.0712 O   0  0  0  0  0  0  0  0  0  0  0  0
    4.8762    6.6519   -0.2346 C   0  0  1  0  0  0  0  0  0  0  0  0
    4.7032    5.7238    0.9802 C   0  0  0  0  0  0  0  0  0  0  0  0
    5.8788    6.1583   -1.1904 N   0  0  0  0  0  0  0  0  0  0  0  0
    7.0188    5.3553   -0.8324 C   0  0  0  0  0  0  0  0  0  0  0  0
    7.0798    4.1739   -1.2690 O   0  0  0  0  0  0  0  0  0  0  0  0
    8.2087    5.8998   -0.0734 C   0  0  1  0  0  0  0  0  0  0  0  0
    8.0525    7.3642    0.3502 C   0  0  0  0  0  0  0  0  0  0  0  0
    8.4662    5.0679    1.1099 N   0  0  0  0  0  0  0  0  0  0  0  0
    9.7746    4.8628    1.6692 C   0  0  0  0  0  0  0  0  0  0  0  0
    9.8969    4.8355    2.9245 O   0  0  0  0  0  0  0  0  0  0  0  0
   11.0042    4.6943    0.8006 C   0  0  1  0  0  0  0  0  0  0  0  0
   11.7565    6.0270    0.7156 C   0  0  0  0  0  0  0  0  0  0  0  0
   11.8888    3.6483    1.3485 N   0  0  0  0  0  0  0  0  0  0  0  0
   13.0619    3.1224    0.6959 C   0  0  0  0  0  0  0  0  0  0  0  0
   13.8924    2.4686    1.3860 O   0  0  0  0  0  0  0  0  0  0  0  0
   13.3225    3.2859   -0.7885 C   0  0  1  0  0  0  0  0  0  0  0  0
   14.6760    3.9760   -0.9940 C   0  0  0  0  0  0  0  0  0  0  0  0
   13.3238    2.0068   -1.5130 N   0  0  0  0  0  0  0  0  0  0  0  0
   13.0419    0.7112   -0.9612 C   0  0  0  0  0  0  0  0  0  0  0  0
   13.8416   -0.2304   -1.2041 O   0  0  0  0  0  0  0  0  0  0  0  0
   11.7440    0.4320   -0.2414 C   0  0  1  0  0  0  0  0  0  0  0  0
   10.8888   -0.5734   -1.0226 C   0  0  0  0  0  0  0  0  0  0  0  0
   11.9683    0.0123    1.1526 N   0  0  0  0  0  0  0  0  0  0  0  0
   12.1172   -1.3467    1.6055 C   0  0  0  0  0  0  0  0  0  0  0  0
   11.2880   -1.7969    2.4410 O   0  0  0  0  0  0  0  0  0  0  0  0
   13.3080   -2.1926    1.2069 C   0  0  1  0  0  0  0  0  0  0  0  0
   14.6015   -1.5445    1.7046 C   0  0  0  0  0  0  0  0  0  0  0  0
   13.1943   -3.5480    1.7679 N   0  0  0  0  0  0  0  0  0  0  0  0
   12.5455   -4.6525    1.1106 C   0  0  0  0  0  0  0  0  0  0  0  0
   12.6681   -5.8070    1.6041 O   0  0  0  0  0  0  0  0  0  0  0  0
   11.7423   -4.4807   -0.1534 C   0  0  1  0  0  0  0  0  0  0  0  0
   12.5784   -4.8609   -1.3766 C   0  0  0  0  0  0  0  0  0  0  0  0
   10.5328   -5.3030   -0.1043 N   0  0  0  0  0  0  0  0  0  0  0  0
    9.2213   -4.7208   -0.0372 C   0  0  0  0  0  0  0  0  0  0  0  0
    9.0623   -3.5948    0.5124 O   0  0  0  0  0  0  0  0  0  0  0  0
    8.0190   -5.4485   -0.5716 C   0  0  1  0  0  0  0  0  0  0  0  0
    8.3071   -6.0483   -1.9544 C   0  0  0  0  0  0  0  0  0  0  0  0
    7.6161   -6.5071    0.3616 N   0  0  0  0  0  0  0  0  0  0  0  0
    6.2559   -6.9070    0.6229 C   0  0  0  0  0  0  0  0  0  0  0  0
    6.0385   -7.7036    1.5753 O   0  0  0  0  0  0  0  0  0  0  0  0
   -0.8653    3.4654   -1.1163 C   0  0  0  0  0  0  0  0  0  0  0  0
   -1.7428    2.8728   -1.7988 O   0  0  0  0  0  0  0  0  0  0  0  0
   -1.0070    4.8864   -0.9246 N   0  0  0  0  0  0  0  0  0  0  0  0
   -0.7661    5.6317    0.3244 C   0  0  2  0  0  0  0  0  0  0  0  0
   -1.3274    4.9215    1.5698 C   0  0  0  0  0  0  0  0  0  0  0  0
   -1.3058    7.0488    0.2063 C   0  0  0  0  0  0  0  0  0  0  0  0
   -0.5129    8.0037    0.4277 O   0  0  0  0  0  0  0  0  0  0  0  0
   -2.6596    7.3642   -0.1864 N   0  0  0  0  0  0  0  0  0  0  0  0
   -3.8055    6.4466   -0.1464 C   0  0  2  0  0  0  0  0  0  0  0  0
   -4.5928    6.5487   -1.4522 C   0  0  0  0  0  0  0  0  0  0  0  0
   -4.6130    6.7009    1.1131 C   0  0  0  0  0  0  0  0  0  0  0  0
   -4.0009    6.7037    2.2146 O   0  0  0  0  0  0  0  0  0  0  0  0
   -6.0450    6.8401    1.1417 N   0  0  0  0  0  0  0  0  0  0  0  0
   -6.8022    7.9167    0.4764 C   0  0  2  0  0  0  0  0  0  0  0  0
   -6.1016    9.2724    0.6609 C   0  0  0  0  0  0  0  0  0  0  0  0
   -8.2295    7.9507    0.9951 C   0  0  0  0  0  0  0  0  0  0  0  0
   -8.7632    9.0389    1.3467 O   0  0  0  0  0  0  0  0  0  0  0  0
   -8.9746    6.7311    1.1256 N   0  0  0  0  0  0  0  0  0  0  0  0
   -9.9138    6.2415    0.1108 C   0  0  2  0  0  0  0  0  0  0  0  0
   -9.4183    6.5003   -1.3183 C   0  0  0  0  0  0  0  0  0  0  0  0
  -11.2784    6.8520    0.3179 C   0  0  0  0  0  0  0  0  0  0  0  0
  -11.3878    8.1035    0.4462 O   0  0  0  0  0  0  0  0  0  0  0  0
  -12.4590    6.0377    0.3983 N   0  0  0  0  0  0  0  0  0  0  0  0
  -12.7185    4.9295   -0.5241 C   0  0  2  0  0  0  0  0  0  0  0  0
  -13.5748    5.4146   -1.6963 C   0  0  0  0  0  0  0  0  0  0  0  0
  -13.3940    3.7928    0.1968 C   0  0  0  0  0  0  0  0  0  0  0  0
  -14.5736    3.9272    0.6224 O   0  0  0  0  0  0  0  0  0  0  0  0
  -12.6876    2.5610    0.3994 N   0  0  0  0  0  0  0  0  0  0  0  0
  -13.1521    1.2658   -0.1224 C   0  0  2  0  0  0  0  0  0  0  0  0
  -13.7028    1.4146   -1.5479 C   0  0  0  0  0  0  0  0  0  0  0  0
  -14.1738    0.6296    0.7927 C   0  0  0  0  0  0  0  0  0  0  0  0
  -15.0976    1.3378    1.2801 O   0  0  0  0  0  0  0  0  0  0  0  0
  -14.1280   -0.7677    1.1273 N   0  0  0  0  0  0  0  0  0  0  0  0
  -13.7717   -1.8125    0.1586 C   0  0  2  0  0  0  0  0  0  0  0  0
  -14.9936   -2.1592   -0.7013 C   0  0  0  0  0  0  0  0  0  0  0  0
  -13.2651   -3.0357    0.8768 C   0  0  0  0  0  0  0  0  0  0  0  0
  -14.0224   -3.6628    1.6645 O   0  0  0  0  0  0  0  0  0  0  0  0
  -11.9111   -3.4632    0.7029 N   0  0  0  0  0  0  0  0  0  0  0  0
  -11.5229   -4.6494   -0.0689 C   0  0  2  0  0  0  0  0  0  0  0  0
  -12.1731   -4.6311   -1.4616 C   0  0  0  0  0  0  0  0  0  0  0  0
  -11.8783   -5.9243    0.6722 C   0  0  0  0  0  0  0  0  0  0  0  0
  -13.0989   -6.1887    0.8558 O   0  0  0  0  0  0  0  0  0  0  0  0
  -10.9003   -6.8699    1.1575 N   0  0  0  0  0  0  0  0  0  0  0  0
   -9.4349   -6.7315    1.1863 C   0  0  2  0  0  0  0  0  0  0  0  0
   -9.0066   -5.5444    2.0608 C   0  0  0  0  0  0  0  0  0  0  0  0
   -8.8354   -6.6881   -0.1988 C   0  0  0  0  0  0  0  0  0  0  0  0
   -9.5734   -6.7946   -1.2179 O   0  0  0  0  0  0  0  0  0  0  0  0
   -7.4231   -6.5342   -0.3823 N   0  0  0  0  0  0  0  0  0  0  0  0
   -6.4625   -7.6509   -0.3246 C   0  0  2  0  0  0  0  0  0  0  0  0
   -7.1101   -9.0074   -0.6423 C   0  0  0  0  0  0  0  0  0  0  0  0
   -5.7730   -7.6949    1.0242 C   0  0  0  0  0  0  0  0  0  0  0  0
   -6.4747   -7.8639    2.0574 O   0  0  0  0  0  0  0  0  0  0  0  0
   -4.3463   -7.5727    1.1749 N   0  0  0  0  0  0  0  0  0  0  0  0
   -3.3912   -7.4216    0.0669 C   0  0  2  0  0  0  0  0  0  0  0  0
   -3.3608   -8.6776   -0.7705 C   0  0  0  0  0  0  0  0  0  0  0  0
   -3.2201   -9.9594   -0.1557 N   0  0  0  0  0  0  0  0  0  0  0  0
   -3.4566   -8.5933   -2.0244 O   0  0  0  0  0  0  0  0  0  0  0  0
   -1.9790   -7.1113    0.6010 C   0  0  0  0  0  0  0  0  0  0  0  0
   -0.8844   -6.5348   -0.7509 S   0  0  0  0  0  0  0  0  0  0  0  0
   -1.2518   -4.7404   -0.5735 C   0  0  0  0  0  0  0  0  0  0  0  0
    3.1185   -9.2273   -3.4240 H   0  0  0  0  0  0  0  0  0  0  0  0
    2.1084   -8.7434   -2.0011 H   0  0  0  0  0  0  0  0  0  0  0  0
    3.4126   -9.9817   -1.8087 H   0  0  0  0  0  0  0  0  0  0  0  0
    3.7497   -8.1106    0.1155 H   0  0  0  0  0  0  0  0  0  0  0  0
    5.4565   -5.9112   -1.1141 H   0  0  0  0  0  0  0  0  0  0  0  0
    4.9161   -4.5436    0.8889 H   0  0  0  0  0  0  0  0  0  0  0  0
    3.5081   -4.9365   -0.1530 H   0  0  0  0  0  0  0  0  0  0  0  0
    2.1043   -4.6833    3.5277 H   0  0  0  0  0  0  0  0  0  0  0  0
    3.5279   -3.8005    2.8877 H   0  0  0  0  0  0  0  0  0  0  0  0
    0.4707   -5.5218    1.4536 H   0  0  0  0  0  0  0  0  0  0  0  0
   -0.4678   -2.2172   -1.1560 H   0  0  0  0  0  0  0  0  0  0  0  0
    2.8701   -1.9651    1.5588 H   0  0  0  0  0  0  0  0  0  0  0  0
    0.8756   -0.2625   -1.1734 H   0  0  0  0  0  0  0  0  0  0  0  0
    2.5548   -0.4498   -0.6318 H   0  0  0  0  0  0  0  0  0  0  0  0
   -0.6556    2.0973    1.2301 H   0  0  0  0  0  0  0  0  0  0  0  0
   -0.8666    0.8968   -0.0692 H   0  0  0  0  0  0  0  0  0  0  0  0
    0.6985    2.1002   -1.5288 H   0  0  0  0  0  0  0  0  0  0  0  0
    1.3960    3.7381    0.8964 H   0  0  0  0  0  0  0  0  0  0  0  0
    4.1609    4.4709   -1.9189 H   0  0  0  0  0  0  0  0  0  0  0  0
    1.3114    4.1967   -3.0458 H   0  0  0  0  0  0  0  0  0  0  0  0
    2.7319    4.9334   -3.8737 H   0  0  0  0  0  0  0  0  0  0  0  0
    2.7416    3.1776   -3.4690 H   0  0  0  0  0  0  0  0  0  0  0  0
    1.6488    6.1079   -1.4688 H   0  0  0  0  0  0  0  0  0  0  0  0
    5.2290    7.6297    0.1568 H   0  0  0  0  0  0  0  0  0  0  0  0
    3.7633    5.9595    1.5247 H   0  0  0  0  0  0  0  0  0  0  0  0
    5.5402    5.8642    1.6918 H   0  0  0  0  0  0  0  0  0  0  0  0
    4.6844    4.6622    0.6728 H   0  0  0  0  0  0  0  0  0  0  0  0
    5.6730    6.2381   -2.2143 H   0  0  0  0  0  0  0  0  0  0  0  0
    9.0714    5.8554   -0.7683 H   0  0  0  0  0  0  0  0  0  0  0  0
    9.0128    7.7435    0.7548 H   0  0  0  0  0  0  0  0  0  0  0  0
    7.2917    7.4668    1.1495 H   0  0  0  0  0  0  0  0  0  0  0  0
    7.7734    7.9975   -0.5202 H   0  0  0  0  0  0  0  0  0  0  0  0
    7.6554    4.8598    1.7352 H   0  0  0  0  0  0  0  0  0  0  0  0
   10.6678    4.3792   -0.2063 H   0  0  0  0  0  0  0  0  0  0  0  0
   11.1024    6.8137    0.2918 H   0  0  0  0  0  0  0  0  0  0  0  0
   12.6324    5.9457    0.0481 H   0  0  0  0  0  0  0  0  0  0  0  0
   12.1017    6.3465    1.7222 H   0  0  0  0  0  0  0  0  0  0  0  0
   11.6726    3.2361    2.2842 H   0  0  0  0  0  0  0  0  0  0  0  0
   12.5547    3.9314   -1.2560 H   0  0  0  0  0  0  0  0  0  0  0  0
   15.5017    3.3244   -0.6326 H   0  0  0  0  0  0  0  0  0  0  0  0
   14.8343    4.1898   -2.0723 H   0  0  0  0  0  0  0  0  0  0  0  0
   14.7194    4.9412   -0.4434 H   0  0  0  0  0  0  0  0  0  0  0  0
   13.6699    2.0187   -2.5016 H   0  0  0  0  0  0  0  0  0  0  0  0
   11.1557    1.3751   -0.2176 H   0  0  0  0  0  0  0  0  0  0  0  0
   10.0080   -0.8845   -0.4185 H   0  0  0  0  0  0  0  0  0  0  0  0
   11.4824   -1.4635   -1.3041 H   0  0  0  0  0  0  0  0  0  0  0  0
   10.5236   -0.1019   -1.9591 H   0  0  0  0  0  0  0  0  0  0  0  0
   11.6657    0.6922    1.8845 H   0  0  0  0  0  0  0  0  0  0  0  0
   13.3680   -2.2561    0.1048 H   0  0  0  0  0  0  0  0  0  0  0  0
   14.5949   -1.4575    2.8146 H   0  0  0  0  0  0  0  0  0  0  0  0
   15.4785   -2.1612    1.4073 H   0  0  0  0  0  0  0  0  0  0  0  0
   14.7288   -0.5310    1.2720 H   0  0  0  0  0  0  0  0  0  0  0  0
   13.5821   -3.7287    2.7209 H   0  0  0  0  0  0  0  0  0  0  0  0
   11.4465   -3.4237   -0.2572 H   0  0  0  0  0  0  0  0  0  0  0  0
   12.9118   -5.9208   -1.3065 H   0  0  0  0  0  0  0  0  0  0  0  0
   11.9723   -4.7388   -2.3018 H   0  0  0  0  0  0  0  0  0  0  0  0
   13.4707   -4.2070   -1.4543 H   0  0  0  0  0  0  0  0  0  0  0  0
   10.6185   -6.3431   -0.1838 H   0  0  0  0  0  0  0  0  0  0  0  0
    7.2052   -4.6993   -0.6765 H   0  0  0  0  0  0  0  0  0  0  0  0
    8.7265   -5.2714   -2.6300 H   0  0  0  0  0  0  0  0  0  0  0  0
    7.3732   -6.4355   -2.4119 H   0  0  0  0  0  0  0  0  0  0  0  0
    9.0321   -6.8880   -1.8836 H   0  0  0  0  0  0  0  0  0  0  0  0
    8.3666   -7.0216    0.8739 H   0  0  0  0  0  0  0  0  0  0  0  0
   -1.4884    5.3925   -1.7019 H   0  0  0  0  0  0  0  0  0  0  0  0
    0.3283    5.7279    0.4690 H   0  0  0  0  0  0  0  0  0  0  0  0
   -2.2264    4.3104    1.3443 H   0  0  0  0  0  0  0  0  0  0  0  0
   -0.5633    4.2458    2.0040 H   0  0  0  0  0  0  0  0  0  0  0  0
   -1.5732    5.6562    2.3676 H   0  0  0  0  0  0  0  0  0  0  0  0
   -2.8714    8.3733   -0.3612 H   0  0  0  0  0  0  0  0  0  0  0  0
   -3.4580    5.4018   -0.0964 H   0  0  0  0  0  0  0  0  0  0  0  0
   -5.4995    5.9065   -1.4124 H   0  0  0  0  0  0  0  0  0  0  0  0
   -4.8678    7.5995   -1.6734 H   0  0  0  0  0  0  0  0  0  0  0  0
   -3.9582    6.1818   -2.2882 H   0  0  0  0  0  0  0  0  0  0  0  0
   -6.5139    6.3174    1.9151 H   0  0  0  0  0  0  0  0  0  0  0  0
   -6.8706    7.7053   -0.6041 H   0  0  0  0  0  0  0  0  0  0  0  0
   -5.0944    9.2549    0.1973 H   0  0  0  0  0  0  0  0  0  0  0  0
   -6.6793   10.0839    0.1685 H   0  0  0  0  0  0  0  0  0  0  0  0
   -5.9911    9.5110    1.7426 H   0  0  0  0  0  0  0  0  0  0  0  0
   -9.1160    6.3860    2.1031 H   0  0  0  0  0  0  0  0  0  0  0  0
   -9.9827    5.1431    0.2373 H   0  0  0  0  0  0  0  0  0  0  0  0
  -10.1325    6.0726   -2.0535 H   0  0  0  0  0  0  0  0  0  0  0  0
   -9.3277    7.5911   -1.5159 H   0  0  0  0  0  0  0  0  0  0  0  0
   -8.4303    6.0181   -1.4699 H   0  0  0  0  0  0  0  0  0  0  0  0
  -13.2832    6.4469    0.8979 H   0  0  0  0  0  0  0  0  0  0  0  0
  -11.7689    4.5489   -0.9509 H   0  0  0  0  0  0  0  0  0  0  0  0
  -14.5115    5.8880   -1.3287 H   0  0  0  0  0  0  0  0  0  0  0  0
  -13.8404    4.5641   -2.3584 H   0  0  0  0  0  0  0  0  0  0  0  0
  -13.0082    6.1649   -2.2901 H   0  0  0  0  0  0  0  0  0  0  0  0
  -11.6717    2.6332    0.6493 H   0  0  0  0  0  0  0  0  0  0  0  0
  -12.2636    0.6017   -0.1779 H   0  0  0  0  0  0  0  0  0  0  0  0
  -12.9640    1.9501   -2.1829 H   0  0  0  0  0  0  0  0  0  0  0  0
  -14.6571    1.9853   -1.5503 H   0  0  0  0  0  0  0  0  0  0  0  0
  -13.8837    0.4186   -2.0012 H   0  0  0  0  0  0  0  0  0  0  0  0
  -14.6970   -1.0609    1.9548 H   0  0  0  0  0  0  0  0  0  0  0  0
  -12.9692   -1.4573   -0.5170 H   0  0  0  0  0  0  0  0  0  0  0  0
  -15.4130   -1.2394   -1.1622 H   0  0  0  0  0  0  0  0  0  0  0  0
  -15.7862   -2.6386   -0.0885 H   0  0  0  0  0  0  0  0  0  0  0  0
  -14.7004   -2.8461   -1.5186 H   0  0  0  0  0  0  0  0  0  0  0  0
  -11.1733   -2.9745    1.2694 H   0  0  0  0  0  0  0  0  0  0  0  0
  -10.4345   -4.5903   -0.2481 H   0  0  0  0  0  0  0  0  0  0  0  0
  -11.9706   -3.6607   -1.9660 H   0  0  0  0  0  0  0  0  0  0  0  0
  -13.2722   -4.7769   -1.3883 H   0  0  0  0  0  0  0  0  0  0  0  0
  -11.7527   -5.4458   -2.0891 H   0  0  0  0  0  0  0  0  0  0  0  0
  -11.2847   -7.7385    1.5940 H   0  0  0  0  0  0  0  0  0  0  0  0
   -9.0304   -7.6416    1.6738 H   0  0  0  0  0  0  0  0  0  0  0  0
   -9.5381   -5.5891    3.0356 H   0  0  0  0  0  0  0  0  0  0  0  0
   -7.9124   -5.5870    2.2580 H   0  0  0  0  0  0  0  0  0  0  0  0
   -9.2280   -4.5663    1.5896 H   0  0  0  0  0  0  0  0  0  0  0  0
   -7.1337   -5.7006   -0.9417 H   0  0  0  0  0  0  0  0  0  0  0  0
   -5.7212   -7.4710   -1.1252 H   0  0  0  0  0  0  0  0  0  0  0  0
   -6.3299   -9.7936   -0.6865 H   0  0  0  0  0  0  0  0  0  0  0  0
   -7.8520   -9.2926    0.1312 H   0  0  0  0  0  0  0  0  0  0  0  0
   -7.6186   -8.9669   -1.6313 H   0  0  0  0  0  0  0  0  0  0  0  0
   -3.9720   -7.6194    2.1495 H   0  0  0  0  0  0  0  0  0  0  0  0
   -3.7112   -6.5557   -0.5574 H   0  0  0  0  0  0  0  0  0  0  0  0
   -3.2005  -10.8234   -0.7427 H   0  0  0  0  0  0  0  0  0  0  0  0
   -3.1597  -10.0519    0.8833 H   0  0  0  0  0  0  0  0  0  0  0  0
   -1.5336   -8.0206    1.0541 H   0  0  0  0  0  0  0  0  0  0  0  0
   -2.0253   -6.3471    1.4053 H   0  0  0  0  0  0  0  0  0  0  0  0
   -1.4433   -4.3571   -1.5992 H   0  0  0  0  0  0  0  0  0  0  0  0
   -2.1767   -4.5528    0.0149 H   0  0  0  0  0  0  0  0  0  0  0  0
  1  2  1  0
  2  3  2  0
  2  4  1  0
  4  5  1  0
  5  6  1  0
  6  7  1  0
  7  8  1  0
  8  9  1  0
  9 10  1  0
 10 11  2  0
 11 12  1  0
 12 13  2  0
 13 14  1  0
 13 15  1  0
 15 16  1  0
 16 17  1  0
 17 18  1  0
 18 19  1  0
 19 20  1  0
 20 21  2  0
 20 22  1  0
 22 23  1  0
 22 24  1  0
 24 25  1  0
 25 26  2  0
 25 27  1  0
 27 28  1  0
 27 29  1  0
 29 30  1  0
 30 31  2  0
 30 32  1  0
 32 33  1  0
 32 34  1  0
 34 35  1  0
 35 36  2  0
 35 37  1  0
 37 38  1  0
 37 39  1  0
 39 40  1  0
 40 41  2  0
 40 42  1  0
 42 43  1  0
 42 44  1  0
 44 45  1  0
 45 46  2  0
 45 47  1  0
 47 48  1  0
 47 49  1  0
 49 50  1  0
 50 51  2  0
 50 52  1  0
 52 53  1  0
 52 54  1  0
 54 55  1  0
 55 56  2  0
 55 57  1  0
 57 58  1  0
 57 59  1  0
 59 60  1  0
 60 61  2  0
 60 62  1  0
 62 63  1  0
 62 64  1  0
 64 65  1  0
 65 66  2  0
 18 67  1  0
 67 68  2  0
 67 69  1  0
 69 70  1  0
 70 71  1  0
 70 72  1  0
 72 73  2  0
 72 74  1  0
 74 75  1  0
 75 76  1  0
 75 77  1  0
 77 78  2  0
 77 79  1  0
 79 80  1  0
 80 81  1  0
 80 82  1  0
 82 83  2  0
 82 84  1  0
 84 85  1  0
 85 86  1  0
 85 87  1  0
 87 88  2  0
 87 89  1  0
 89 90  1  0
 90 91  1  0
 90 92  1  0
 92 93  2  0
 92 94  1  0
 94 95  1  0
 95 96  1  0
 95 97  1  0
 97 98  2  0
 97 99  1  0
 99100  1  0
100101  1  0
100102  1  0
102103  2  0
102104  1  0
104105  1  0
105106  1  0
105107  1  0
107108  2  0
107109  1  0
109110  1  0
110111  1  0
110112  1  0
112113  2  0
112114  1  0
114115  1  0
115116  1  0
115117  1  0
117118  2  0
117119  1  0
119120  1  0
120121  1  0
121122  1  0
121123  2  0
120124  1  0
124125  1  0
125126  1  0
 65  5  1  0
 14  9  2  0
126 11  1  0
  1127  1  0
  1128  1  0
  1129  1  0
  4130  1  0
  5131  1  6
  6132  1  0
  6133  1  0
  8134  1  0
  8135  1  0
 10136  1  0
 12137  1  0
 14138  1  0
 15139  1  0
 15140  1  0
 17141  1  0
 17142  1  0
 18143  1  6
 19144  1  0
 22145  1  6
 23146  1  0
 23147  1  0
 23148  1  0
 24149  1  0
 27150  1  1
 28151  1  0
 28152  1  0
 28153  1  0
 29154  1  0
 32155  1  6
 33156  1  0
 33157  1  0
 33158  1  0
 34159  1  0
 37160  1  6
 38161  1  0
 38162  1  0
 38163  1  0
 39164  1  0
 42165  1  6
 43166  1  0
 43167  1  0
 43168  1  0
 44169  1  0
 47170  1  1
 48171  1  0
 48172  1  0
 48173  1  0
 49174  1  0
 52175  1  6
 53176  1  0
 53177  1  0
 53178  1  0
 54179  1  0
 57180  1  6
 58181  1  0
 58182  1  0
 58183  1  0
 59184  1  0
 62185  1  6
 63186  1  0
 63187  1  0
 63188  1  0
 64189  1  0
 69190  1  0
 70191  1  1
 71192  1  0
 71193  1  0
 71194  1  0
 74195  1  0
 75196  1  1
 76197  1  0
 76198  1  0
 76199  1  0
 79200  1  0
 80201  1  6
 81202  1  0
 81203  1  0
 81204  1  0
 84205  1  0
 85206  1  6
 86207  1  0
 86208  1  0
 86209  1  0
 89210  1  0
 90211  1  6
 91212  1  0
 91213  1  0
 91214  1  0
 94215  1  0
 95216  1  6
 96217  1  0
 96218  1  0
 96219  1  0
 99220  1  0
100221  1  6
101222  1  0
101223  1  0
101224  1  0
104225  1  0
105226  1  6
106227  1  0
106228  1  0
106229  1  0
109230  1  0
110231  1  1
111232  1  0
111233  1  0
111234  1  0
114235  1  0
115236  1  6
116237  1  0
116238  1  0
116239  1  0
119240  1  0
120241  1  6
122242  1  0
122243  1  0
124244  1  0
124245  1  0
126246  1  0
126247  1  0
M  END
