
     RDKit          3D

207209  0  0  0  0  0  0  0  0999 V2000
   -0.7442   10.8381    0.1910 C   0  0  0  0  0  0  0  0  0  0  0  0
   -0.8298    9.8432    1.3109 C   0  0  0  0  0  0  0  0  0  0  0  0
   -1.5696   10.1056    2.3007 O   0  0  0  0  0  0  0  0  0  0  0  0
   -0.0498    8.6412    1.3276 N   0  0  0  0  0  0  0  0  0  0  0  0
    0.7376    8.1467    0.1870 C   0  0  2  0  0  0  0  0  0  0  0  0
   -0.0210    7.0245   -0.5441 C   0  0  0  0  0  0  0  0  0  0  0  0
   -0.4840    5.6397    0.5579 S   0  0  0  0  0  0  0  0  0  0  0  0
   -0.9985    4.5153   -0.7864 C   0  0  0  0  0  0  0  0  0  0  0  0
   -1.9772    3.4975   -0.2582 C   0  0  0  0  0  0  0  0  0  0  0  0
   -3.3535    3.6534   -0.4795 C   0  0  0  0  0  0  0  0  0  0  0  0
   -4.2612    2.7033    0.0180 C   0  0  0  0  0  0  0  0  0  0  0  0
   -3.7895    1.6330    0.7945 C   0  0  0  0  0  0  0  0  0  0  0  0
   -2.4089    1.4663    1.0275 C   0  0  0  0  0  0  0  0  0  0  0  0
   -1.5108    2.3953    0.4760 C   0  0  0  0  0  0  0  0  0  0  0  0
   -1.8648    0.3613    1.9153 C   0  0  0  0  0  0  0  0  0  0  0  0
   -2.9878   -1.0772    2.0619 S   0  0  0  0  0  0  0  0  0  0  0  0
   -2.2475   -2.0870    0.7201 C   0  0  0  0  0  0  0  0  0  0  0  0
   -3.3298   -2.9383    0.0366 C   0  0  1  0  0  0  0  0  0  0  0  0
   -2.7759   -3.6944   -1.1060 N   0  0  0  0  0  0  0  0  0  0  0  0
   -2.1307   -4.9811   -1.0939 C   0  0  0  0  0  0  0  0  0  0  0  0
   -2.1096   -5.6325   -2.1751 O   0  0  0  0  0  0  0  0  0  0  0  0
   -1.4764   -5.5814    0.1342 C   0  0  1  0  0  0  0  0  0  0  0  0
   -2.2100   -6.8479    0.5927 C   0  0  0  0  0  0  0  0  0  0  0  0
   -0.0437   -5.8495   -0.0854 N   0  0  0  0  0  0  0  0  0  0  0  0
    0.4590   -6.9806   -0.8275 C   0  0  0  0  0  0  0  0  0  0  0  0
   -0.1469   -7.3842   -1.8544 O   0  0  0  0  0  0  0  0  0  0  0  0
    1.6294   -7.7760   -0.3024 C   0  0  1  0  0  0  0  0  0  0  0  0
    1.0755   -8.9529    0.5020 C   0  0  0  0  0  0  0  0  0  0  0  0
    2.4654   -8.2665   -1.3982 N   0  0  0  0  0  0  0  0  0  0  0  0
    3.7923   -8.7925   -1.2072 C   0  0  0  0  0  0  0  0  0  0  0  0
    4.1363   -9.8127   -1.8728 O   0  0  0  0  0  0  0  0  0  0  0  0
    4.7886   -8.1675   -0.2424 C   0  0  1  0  0  0  0  0  0  0  0  0
    4.5996   -8.7426    1.1672 C   0  0  0  0  0  0  0  0  0  0  0  0
    6.1567   -8.4640   -0.6912 N   0  0  0  0  0  0  0  0  0  0  0  0
    7.2026   -7.5208   -0.9928 C   0  0  0  0  0  0  0  0  0  0  0  0
    8.1833   -7.9427   -1.6552 O   0  0  0  0  0  0  0  0  0  0  0  0
    7.2529   -6.1180   -0.3935 C   0  0  1  0  0  0  0  0  0  0  0  0
    7.7376   -6.1828    1.0566 C   0  0  0  0  0  0  0  0  0  0  0  0
    8.0922   -5.1881   -1.1694 N   0  0  0  0  0  0  0  0  0  0  0  0
    9.4507   -5.4275   -1.5708 C   0  0  0  0  0  0  0  0  0  0  0  0
    9.6742   -5.9358   -2.7077 O   0  0  0  0  0  0  0  0  0  0  0  0
   10.6167   -4.9811   -0.7205 C   0  0  1  0  0  0  0  0  0  0  0  0
   11.4292   -6.2058   -0.2914 C   0  0  0  0  0  0  0  0  0  0  0  0
   11.4739   -4.0742   -1.4936 N   0  0  0  0  0  0  0  0  0  0  0  0
   11.8059   -2.7160   -1.1496 C   0  0  0  0  0  0  0  0  0  0  0  0
   12.2399   -1.9648   -2.0688 O   0  0  0  0  0  0  0  0  0  0  0  0
   11.7130   -2.1615    0.2581 C   0  0  1  0  0  0  0  0  0  0  0  0
   12.6423   -2.9206    1.2072 C   0  0  0  0  0  0  0  0  0  0  0  0
   12.0962   -0.7443    0.2692 N   0  0  0  0  0  0  0  0  0  0  0  0
   11.2895    0.2517    0.9119 C   0  0  0  0  0  0  0  0  0  0  0  0
   11.4225    0.4460    2.1442 O   0  0  0  0  0  0  0  0  0  0  0  0
   10.2520    1.0066    0.1266 C   0  0  1  0  0  0  0  0  0  0  0  0
    8.8568    0.4546    0.4367 C   0  0  0  0  0  0  0  0  0  0  0  0
   10.2894    2.4435    0.4370 N   0  0  0  0  0  0  0  0  0  0  0  0
    9.8998    3.4434   -0.5258 C   0  0  0  0  0  0  0  0  0  0  0  0
    9.5992    3.0888   -1.6968 O   0  0  0  0  0  0  0  0  0  0  0  0
    9.8016    4.9086   -0.1223 C   0  0  1  0  0  0  0  0  0  0  0  0
   11.1317    5.4175    0.4404 C   0  0  0  0  0  0  0  0  0  0  0  0
    9.4344    5.7350   -1.2833 N   0  0  0  0  0  0  0  0  0  0  0  0
    8.5981    6.9143   -1.2517 C   0  0  0  0  0  0  0  0  0  0  0  0
    8.3838    7.5288   -2.3406 O   0  0  0  0  0  0  0  0  0  0  0  0
    7.9684    7.4614    0.0146 C   0  0  1  0  0  0  0  0  0  0  0  0
    8.0414    8.9951    0.0718 C   0  0  0  0  0  0  0  0  0  0  0  0
    6.5751    7.0159    0.1498 N   0  0  0  0  0  0  0  0  0  0  0  0
    5.5479    7.3917   -0.7727 C   0  0  0  0  0  0  0  0  0  0  0  0
    5.5872    6.9865   -1.9636 O   0  0  0  0  0  0  0  0  0  0  0  0
    4.3950    8.2390   -0.2926 C   0  0  1  0  0  0  0  0  0  0  0  0
    4.2687    9.4892   -1.1572 C   0  0  0  0  0  0  0  0  0  0  0  0
    3.1360    7.4833   -0.3483 N   0  0  0  0  0  0  0  0  0  0  0  0
    2.1224    7.7336    0.6317 C   0  0  0  0  0  0  0  0  0  0  0  0
    2.4215    7.7192    1.8526 O   0  0  0  0  0  0  0  0  0  0  0  0
   -4.1349   -3.8317    0.9626 C   0  0  0  0  0  0  0  0  0  0  0  0
   -3.6916   -4.1017    2.1126 O   0  0  0  0  0  0  0  0  0  0  0  0
   -5.4097   -4.3857    0.5741 N   0  0  0  0  0  0  0  0  0  0  0  0
   -6.0767   -4.1316   -0.7150 C   0  0  2  0  0  0  0  0  0  0  0  0
   -6.6650   -2.7129   -0.7847 C   0  0  0  0  0  0  0  0  0  0  0  0
   -7.1328   -5.1807   -0.9800 C   0  0  0  0  0  0  0  0  0  0  0  0
   -7.0801   -5.8191   -2.0663 O   0  0  0  0  0  0  0  0  0  0  0  0
   -8.1215   -5.5632   -0.0096 N   0  0  0  0  0  0  0  0  0  0  0  0
   -8.8881   -4.6310    0.8395 C   0  0  2  0  0  0  0  0  0  0  0  0
   -9.0604   -5.2628    2.2218 C   0  0  0  0  0  0  0  0  0  0  0  0
  -10.2415   -4.3662    0.2089 C   0  0  0  0  0  0  0  0  0  0  0  0
  -10.8088   -5.3092   -0.4132 O   0  0  0  0  0  0  0  0  0  0  0  0
  -10.9149   -3.0908    0.2740 N   0  0  0  0  0  0  0  0  0  0  0  0
  -10.6958   -2.0914    1.3247 C   0  0  2  0  0  0  0  0  0  0  0  0
  -11.9902   -1.3151    1.6399 C   0  0  0  0  0  0  0  0  0  0  0  0
   -9.5263   -1.1851    1.0211 C   0  0  0  0  0  0  0  0  0  0  0  0
   -8.6943   -0.9828    1.9434 O   0  0  0  0  0  0  0  0  0  0  0  0
   -9.2588   -0.6028   -0.2692 N   0  0  0  0  0  0  0  0  0  0  0  0
  -10.2559   -0.1546   -1.2384 C   0  0  2  0  0  0  0  0  0  0  0  0
  -10.2822   -1.0981   -2.4480 C   0  0  0  0  0  0  0  0  0  0  0  0
   -9.9189    1.2497   -1.7047 C   0  0  0  0  0  0  0  0  0  0  0  0
   -8.8695    1.4383   -2.3806 O   0  0  0  0  0  0  0  0  0  0  0  0
  -10.7738    2.3818   -1.4425 N   0  0  0  0  0  0  0  0  0  0  0  0
  -11.4540    2.6062   -0.1542 C   0  0  2  0  0  0  0  0  0  0  0  0
  -12.4603    3.7514   -0.2521 C   0  0  0  0  0  0  0  0  0  0  0  0
  -10.4567    2.8458    0.9590 C   0  0  0  0  0  0  0  0  0  0  0  0
  -10.4144    2.0283    1.9131 O   0  0  0  0  0  0  0  0  0  0  0  0
   -9.6314    4.0189    1.0195 N   0  0  0  0  0  0  0  0  0  0  0  0
   -8.7821    4.4892   -0.0892 C   0  0  1  0  0  0  0  0  0  0  0  0
   -9.4600    5.6227   -0.8159 C   0  0  0  0  0  0  0  0  0  0  0  0
   -9.9482    6.7599   -0.0960 N   0  0  0  0  0  0  0  0  0  0  0  0
   -9.5665    5.5942   -2.0701 O   0  0  0  0  0  0  0  0  0  0  0  0
   -7.4143    4.9616    0.4423 C   0  0  0  0  0  0  0  0  0  0  0  0
   -6.5138    3.5978    1.2628 S   0  0  0  0  0  0  0  0  0  0  0  0
   -5.7381    2.8694   -0.2281 C   0  0  0  0  0  0  0  0  0  0  0  0
   -1.0617   10.3643   -0.7645 H   0  0  0  0  0  0  0  0  0  0  0  0
   -1.4004   11.7123    0.3872 H   0  0  0  0  0  0  0  0  0  0  0  0
    0.2991   11.2095    0.0902 H   0  0  0  0  0  0  0  0  0  0  0  0
   -0.1678    8.0141    2.1583 H   0  0  0  0  0  0  0  0  0  0  0  0
    0.8908    8.9646   -0.5440 H   0  0  0  0  0  0  0  0  0  0  0  0
    0.5732    6.6477   -1.3967 H   0  0  0  0  0  0  0  0  0  0  0  0
   -0.9586    7.4569   -0.9526 H   0  0  0  0  0  0  0  0  0  0  0  0
   -0.0986    3.9968   -1.1848 H   0  0  0  0  0  0  0  0  0  0  0  0
   -1.4591    5.0828   -1.6160 H   0  0  0  0  0  0  0  0  0  0  0  0
   -3.7268    4.5113   -1.0287 H   0  0  0  0  0  0  0  0  0  0  0  0
   -4.5130    0.9394    1.2043 H   0  0  0  0  0  0  0  0  0  0  0  0
   -0.4455    2.2734    0.6374 H   0  0  0  0  0  0  0  0  0  0  0  0
   -1.7222    0.7782    2.9279 H   0  0  0  0  0  0  0  0  0  0  0  0
   -0.8736    0.0236    1.5432 H   0  0  0  0  0  0  0  0  0  0  0  0
   -1.4299   -2.6994    1.1483 H   0  0  0  0  0  0  0  0  0  0  0  0
   -1.8031   -1.4229   -0.0505 H   0  0  0  0  0  0  0  0  0  0  0  0
   -4.0360   -2.1849   -0.3718 H   0  0  0  0  0  0  0  0  0  0  0  0
   -3.0454   -3.3304   -2.0555 H   0  0  0  0  0  0  0  0  0  0  0  0
   -1.5469   -4.8667    0.9692 H   0  0  0  0  0  0  0  0  0  0  0  0
   -3.2539   -6.5976    0.8851 H   0  0  0  0  0  0  0  0  0  0  0  0
   -2.2410   -7.6257   -0.2030 H   0  0  0  0  0  0  0  0  0  0  0  0
   -1.7060   -7.2681    1.4894 H   0  0  0  0  0  0  0  0  0  0  0  0
    0.6263   -5.3583    0.5419 H   0  0  0  0  0  0  0  0  0  0  0  0
    2.2328   -7.1190    0.3629 H   0  0  0  0  0  0  0  0  0  0  0  0
    1.8905   -9.6049    0.8798 H   0  0  0  0  0  0  0  0  0  0  0  0
    0.4083   -9.5754   -0.1363 H   0  0  0  0  0  0  0  0  0  0  0  0
    0.4954   -8.5882    1.3755 H   0  0  0  0  0  0  0  0  0  0  0  0
    1.9863   -8.5896   -2.2697 H   0  0  0  0  0  0  0  0  0  0  0  0
    4.6059   -7.0816   -0.2144 H   0  0  0  0  0  0  0  0  0  0  0  0
    4.4984   -9.8507    1.1376 H   0  0  0  0  0  0  0  0  0  0  0  0
    5.4773   -8.4943    1.7993 H   0  0  0  0  0  0  0  0  0  0  0  0
    3.7112   -8.3031    1.6659 H   0  0  0  0  0  0  0  0  0  0  0  0
    6.4071   -9.4748   -0.8120 H   0  0  0  0  0  0  0  0  0  0  0  0
    6.2348   -5.6922   -0.3826 H   0  0  0  0  0  0  0  0  0  0  0  0
    6.9744   -6.6707    1.6898 H   0  0  0  0  0  0  0  0  0  0  0  0
    7.9047   -5.1584    1.4426 H   0  0  0  0  0  0  0  0  0  0  0  0
    8.6775   -6.7611    1.1215 H   0  0  0  0  0  0  0  0  0  0  0  0
    7.6838   -4.2577   -1.4134 H   0  0  0  0  0  0  0  0  0  0  0  0
   10.2265   -4.4756    0.1840 H   0  0  0  0  0  0  0  0  0  0  0  0
   11.7314   -6.8220   -1.1640 H   0  0  0  0  0  0  0  0  0  0  0  0
   10.8342   -6.8442    0.3986 H   0  0  0  0  0  0  0  0  0  0  0  0
   12.3546   -5.8954    0.2376 H   0  0  0  0  0  0  0  0  0  0  0  0
   11.8444   -4.4280   -2.4071 H   0  0  0  0  0  0  0  0  0  0  0  0
   10.6679   -2.2628    0.6167 H   0  0  0  0  0  0  0  0  0  0  0  0
   12.7463   -2.3665    2.1651 H   0  0  0  0  0  0  0  0  0  0  0  0
   12.2205   -3.9171    1.4519 H   0  0  0  0  0  0  0  0  0  0  0  0
   13.6543   -3.0486    0.7594 H   0  0  0  0  0  0  0  0  0  0  0  0
   13.0761   -0.4871   -0.0108 H   0  0  0  0  0  0  0  0  0  0  0  0
   10.4538    0.8424   -0.9547 H   0  0  0  0  0  0  0  0  0  0  0  0
    8.7801   -0.6096    0.1304 H   0  0  0  0  0  0  0  0  0  0  0  0
    8.6408    0.5281    1.5242 H   0  0  0  0  0  0  0  0  0  0  0  0
    8.0906    1.0359   -0.1086 H   0  0  0  0  0  0  0  0  0  0  0  0
   10.4682    2.7409    1.4290 H   0  0  0  0  0  0  0  0  0  0  0  0
    9.0241    4.9751    0.6665 H   0  0  0  0  0  0  0  0  0  0  0  0
   11.0423    6.4932    0.6964 H   0  0  0  0  0  0  0  0  0  0  0  0
   11.9428    5.2999   -0.3116 H   0  0  0  0  0  0  0  0  0  0  0  0
   11.4120    4.8759    1.3661 H   0  0  0  0  0  0  0  0  0  0  0  0
    9.9325    5.5468   -2.1812 H   0  0  0  0  0  0  0  0  0  0  0  0
    8.5447    7.1095    0.8967 H   0  0  0  0  0  0  0  0  0  0  0  0
    7.5285    9.3693    0.9830 H   0  0  0  0  0  0  0  0  0  0  0  0
    7.5574    9.4629   -0.8126 H   0  0  0  0  0  0  0  0  0  0  0  0
    9.1059    9.3313    0.1083 H   0  0  0  0  0  0  0  0  0  0  0  0
    6.2899    6.5503    1.0431 H   0  0  0  0  0  0  0  0  0  0  0  0
    4.5976    8.5599    0.7515 H   0  0  0  0  0  0  0  0  0  0  0  0
    3.4693   10.1473   -0.7510 H   0  0  0  0  0  0  0  0  0  0  0  0
    3.9914    9.2248   -2.2077 H   0  0  0  0  0  0  0  0  0  0  0  0
    5.2209   10.0646   -1.1681 H   0  0  0  0  0  0  0  0  0  0  0  0
    2.8336    7.1480   -1.2887 H   0  0  0  0  0  0  0  0  0  0  0  0
   -5.8142   -5.0957    1.2199 H   0  0  0  0  0  0  0  0  0  0  0  0
   -5.3241   -4.2278   -1.5283 H   0  0  0  0  0  0  0  0  0  0  0  0
   -6.0512   -2.0718   -1.4533 H   0  0  0  0  0  0  0  0  0  0  0  0
   -6.6827   -2.2375    0.2231 H   0  0  0  0  0  0  0  0  0  0  0  0
   -7.6957   -2.7195   -1.2029 H   0  0  0  0  0  0  0  0  0  0  0  0
   -8.5085   -6.5287   -0.1027 H   0  0  0  0  0  0  0  0  0  0  0  0
   -8.3308   -3.6881    0.9768 H   0  0  0  0  0  0  0  0  0  0  0  0
   -8.0638   -5.4770    2.6660 H   0  0  0  0  0  0  0  0  0  0  0  0
   -9.6270   -6.2199    2.1487 H   0  0  0  0  0  0  0  0  0  0  0  0
   -9.6053   -4.5817    2.9074 H   0  0  0  0  0  0  0  0  0  0  0  0
  -11.7674   -2.9959   -0.3293 H   0  0  0  0  0  0  0  0  0  0  0  0
  -10.4722   -2.6304    2.2693 H   0  0  0  0  0  0  0  0  0  0  0  0
  -12.5400   -0.9901    0.7349 H   0  0  0  0  0  0  0  0  0  0  0  0
  -12.6871   -1.9694    2.2153 H   0  0  0  0  0  0  0  0  0  0  0  0
  -11.7725   -0.4265    2.2703 H   0  0  0  0  0  0  0  0  0  0  0  0
   -8.2599   -0.3580   -0.4707 H   0  0  0  0  0  0  0  0  0  0  0  0
  -11.2581   -0.1613   -0.7941 H   0  0  0  0  0  0  0  0  0  0  0  0
  -10.5446   -2.1237   -2.1346 H   0  0  0  0  0  0  0  0  0  0  0  0
  -11.0507   -0.7578   -3.1777 H   0  0  0  0  0  0  0  0  0  0  0  0
   -9.2959   -1.1293   -2.9528 H   0  0  0  0  0  0  0  0  0  0  0  0
  -10.7738    3.1498   -2.1528 H   0  0  0  0  0  0  0  0  0  0  0  0
  -12.0505    1.6952    0.0946 H   0  0  0  0  0  0  0  0  0  0  0  0
  -13.2000    3.5400   -1.0574 H   0  0  0  0  0  0  0  0  0  0  0  0
  -13.0139    3.8389    0.7031 H   0  0  0  0  0  0  0  0  0  0  0  0
  -11.9695    4.7165   -0.4684 H   0  0  0  0  0  0  0  0  0  0  0  0
   -9.5048    4.4536    1.9571 H   0  0  0  0  0  0  0  0  0  0  0  0
   -8.5882    3.6601   -0.7995 H   0  0  0  0  0  0  0  0  0  0  0  0
   -9.9442    6.7845    0.9452 H   0  0  0  0  0  0  0  0  0  0  0  0
  -10.3482    7.5719   -0.6119 H   0  0  0  0  0  0  0  0  0  0  0  0
   -7.5586    5.7731    1.1850 H   0  0  0  0  0  0  0  0  0  0  0  0
   -6.8108    5.3895   -0.3952 H   0  0  0  0  0  0  0  0  0  0  0  0
   -5.8838    3.4878   -1.1354 H   0  0  0  0  0  0  0  0  0  0  0  0
   -6.1943    1.8765   -0.4255 H   0  0  0  0  0  0  0  0  0  0  0  0
  1  2  1  0
  2  3  2  0
  2  4  1  0
  4  5  1  0
  5  6  1  0
  6  7  1  0
  7  8  1  0
  8  9  1  0
  9 10  2  0
 10 11  1  0
 11 12  2  0
 12 13  1  0
 13 14  2  0
 13 15  1  0
 15 16  1  0
 16 17  1  0
 17 18  1  0
 18 19  1  0
 19 20  1  0
 20 21  2  0
 20 22  1  0
 22 23  1  0
 22 24  1  0
 24 25  1  0
 25 26  2  0
 25 27  1  0
 27 28  1  0
 27 29  1  0
 29 30  1  0
 30 31  2  0
 30 32  1  0
 32 33  1  0
 32 34  1  0
 34 35  1  0
 35 36  2  0
 35 37  1  0
 37 38  1  0
 37 39  1  0
 39 40  1  0
 40 41  2  0
 40 42  1  0
 42 43  1  0
 42 44  1  0
 44 45  1  0
 45 46  2  0
 45 47  1  0
 47 48  1  0
 47 49  1  0
 49 50  1  0
 50 51  2  0
 50 52  1  0
 52 53  1  0
 52 54  1  0
 54 55  1  0
 55 56  2  0
 55 57  1  0
 57 58  1  0
 57 59  1  0
 59 60  1  0
 60 61  2  0
 60 62  1  0
 62 63  1  0
 62 64  1  0
 64 65  1  0
 65 66  2  0
 65 67  1  0
 67 68  1  0
 67 69  1  0
 69 70  1  0
 70 71  2  0
 18 72  1  0
 72 73  2  0
 72 74  1  0
 74 75  1  0
 75 76  1  0
 75 77  1  0
 77 78  2  0
 77 79  1  0
 79 80  1  0
 80 81  1  0
 80 82  1  0
 82 83  2  0
 82 84  1  0
 84 85  1  0
 85 86  1  0
 85 87  1  0
 87 88  2  0
 87 89  1  0
 89 90  1  0
 90 91  1  0
 90 92  1  0
 92 93  2  0
 92 94  1  0
 94 95  1  0
 95 96  1  0
 95 97  1  0
 97 98  2  0
 97 99  1  0
 99100  1  0
100101  1  0
101102  1  0
101103  2  0
100104  1  0
104105  1  0
105106  1  0
 70  5  1  0
 14  9  1  0
106 11  1  0
  1107  1  0
  1108  1  0
  1109  1  0
  4110  1  0
  5111  1  6
  6112  1  0
  6113  1  0
  8114  1  0
  8115  1  0
 10116  1  0
 12117  1  0
 14118  1  0
 15119  1  0
 15120  1  0
 17121  1  0
 17122  1  0
 18123  1  6
 19124  1  0
 22125  1  1
 23126  1  0
 23127  1  0
 23128  1  0
 24129  1  0
 27130  1  1
 28131  1  0
 28132  1  0
 28133  1  0
 29134  1  0
 32135  1  1
 33136  1  0
 33137  1  0
 33138  1  0
 34139  1  0
 37140  1  1
 38141  1  0
 38142  1  0
 38143  1  0
 39144  1  0
 42145  1  1
 43146  1  0
 43147  1  0
 43148  1  0
 44149  1  0
 47150  1  1
 48151  1  0
 48152  1  0
 48153  1  0
 49154  1  0
 52155  1  6
 53156  1  0
 53157  1  0
 53158  1  0
 54159  1  0
 57160  1  1
 58161  1  0
 58162  1  0
 58163  1  0
 59164  1  0
 62165  1  1
 63166  1  0
 63167  1  0
 63168  1  0
 64169  1  0
 67170  1  1
 68171  1  0
 68172  1  0
 68173  1  0
 69174  1  0
 74175  1  0
 75176  1  6
 76177  1  0
 76178  1  0
 76179  1  0
 79180  1  0
 80181  1  1
 81182  1  0
 81183  1  0
 81184  1  0
 84185  1  0
 85186  1  1
 86187  1  0
 86188  1  0
 86189  1  0
 89190  1  0
 90191  1  1
 91192  1  0
 91193  1  0
 91194  1  0
 94195  1  0
 95196  1  1
 96197  1  0
 96198  1  0
 96199  1  0
 99200  1  0
100201  1  6
102202  1  0
102203  1  0
104204  1  0
104205  1  0
106206  1  0
106207  1  0
M  END
