
     RDKit          3D

157159  0  0  0  0  0  0  0  0999 V2000
   12.4413    0.7977   -1.1931 C   0  0  0  0  0  0  0  0  0  0  0  0
   12.1206    1.7742   -0.0990 C   0  0  0  0  0  0  0  0  0  0  0  0
   13.0175    2.5710    0.2819 O   0  0  0  0  0  0  0  0  0  0  0  0
   10.8294    1.8188    0.5325 N   0  0  0  0  0  0  0  0  0  0  0  0
    9.7298    0.8882    0.2494 C   0  0  2  0  0  0  0  0  0  0  0  0
    8.4468    1.6670   -0.0804 C   0  0  0  0  0  0  0  0  0  0  0  0
    8.5895    2.4554   -1.7242 S   0  0  0  0  0  0  0  0  0  0  0  0
    7.6466    3.9755   -1.3286 C   0  0  0  0  0  0  0  0  0  0  0  0
    6.1487    3.8001   -1.1559 C   0  0  0  0  0  0  0  0  0  0  0  0
    5.4347    4.8688   -0.5922 C   0  0  0  0  0  0  0  0  0  0  0  0
    4.0384    4.8193   -0.4651 C   0  0  0  0  0  0  0  0  0  0  0  0
    3.3519    3.6730   -0.8872 C   0  0  0  0  0  0  0  0  0  0  0  0
    4.0447    2.5757   -1.4265 C   0  0  0  0  0  0  0  0  0  0  0  0
    5.4416    2.6640   -1.6015 C   0  0  0  0  0  0  0  0  0  0  0  0
    3.2271    1.3860   -1.8887 C   0  0  0  0  0  0  0  0  0  0  0  0
    4.1712   -0.1489   -2.2298 S   0  0  0  0  0  0  0  0  0  0  0  0
    4.5176   -0.5543   -0.4790 C   0  0  0  0  0  0  0  0  0  0  0  0
    5.3686   -1.8314   -0.3355 C   0  0  2  0  0  0  0  0  0  0  0  0
    6.6526   -1.6689   -1.0325 N   0  0  0  0  0  0  0  0  0  0  0  0
    7.9396   -2.0263   -0.4978 C   0  0  0  0  0  0  0  0  0  0  0  0
    8.8778   -2.2814   -1.3046 O   0  0  0  0  0  0  0  0  0  0  0  0
    8.2282   -2.0986    0.9825 C   0  0  1  0  0  0  0  0  0  0  0  0
    8.2966   -3.5598    1.4287 C   0  0  0  0  0  0  0  0  0  0  0  0
    9.4911   -1.4230    1.2690 N   0  0  0  0  0  0  0  0  0  0  0  0
    9.5022   -0.0066    1.4353 C   0  0  0  0  0  0  0  0  0  0  0  0
    9.2479    0.4891    2.5686 O   0  0  0  0  0  0  0  0  0  0  0  0
    4.6554   -3.0742   -0.8155 C   0  0  0  0  0  0  0  0  0  0  0  0
    5.0958   -3.7080   -1.8109 O   0  0  0  0  0  0  0  0  0  0  0  0
    3.5265   -3.5829   -0.0826 N   0  0  0  0  0  0  0  0  0  0  0  0
    3.3829   -4.9919    0.3047 C   0  0  2  0  0  0  0  0  0  0  0  0
    4.6162   -5.4745    1.0774 C   0  0  0  0  0  0  0  0  0  0  0  0
    3.0970   -5.8763   -0.8941 C   0  0  0  0  0  0  0  0  0  0  0  0
    4.0484   -6.1926   -1.6583 O   0  0  0  0  0  0  0  0  0  0  0  0
    1.7886   -6.3980   -1.1849 N   0  0  0  0  0  0  0  0  0  0  0  0
    0.5744   -6.1319   -0.4081 C   0  0  2  0  0  0  0  0  0  0  0  0
    0.4968   -7.1051    0.7747 C   0  0  0  0  0  0  0  0  0  0  0  0
   -0.6292   -6.2347   -1.3097 C   0  0  0  0  0  0  0  0  0  0  0  0
   -0.7088   -5.4846   -2.3190 O   0  0  0  0  0  0  0  0  0  0  0  0
   -1.6823   -7.1643   -1.0513 N   0  0  0  0  0  0  0  0  0  0  0  0
   -2.9143   -6.7182   -0.4041 C   0  0  2  0  0  0  0  0  0  0  0  0
   -3.5860   -7.8952    0.3106 C   0  0  0  0  0  0  0  0  0  0  0  0
   -3.8369   -6.1240   -1.4411 C   0  0  0  0  0  0  0  0  0  0  0  0
   -4.2273   -6.8709   -2.3779 O   0  0  0  0  0  0  0  0  0  0  0  0
   -4.2633   -4.7479   -1.4583 N   0  0  0  0  0  0  0  0  0  0  0  0
   -4.0671   -3.7012   -0.4446 C   0  0  2  0  0  0  0  0  0  0  0  0
   -2.6015   -3.2412   -0.3776 C   0  0  0  0  0  0  0  0  0  0  0  0
   -4.6567   -4.0665    0.9010 C   0  0  0  0  0  0  0  0  0  0  0  0
   -3.8978   -4.5124    1.8030 O   0  0  0  0  0  0  0  0  0  0  0  0
   -6.0214   -3.7788    1.2508 N   0  0  0  0  0  0  0  0  0  0  0  0
   -7.2015   -3.9523    0.3940 C   0  0  2  0  0  0  0  0  0  0  0  0
   -7.3316   -5.4001   -0.0949 C   0  0  0  0  0  0  0  0  0  0  0  0
   -7.2381   -2.9325   -0.7291 C   0  0  0  0  0  0  0  0  0  0  0  0
   -7.0924   -3.3094   -1.9247 O   0  0  0  0  0  0  0  0  0  0  0  0
   -7.4445   -1.5290   -0.4824 N   0  0  0  0  0  0  0  0  0  0  0  0
   -8.0899   -1.0022    0.7266 C   0  0  2  0  0  0  0  0  0  0  0  0
   -9.5939   -1.3288    0.6801 C   0  0  0  0  0  0  0  0  0  0  0  0
   -7.8369    0.4909    0.8458 C   0  0  0  0  0  0  0  0  0  0  0  0
   -6.6661    0.9319    0.6813 O   0  0  0  0  0  0  0  0  0  0  0  0
   -8.8986    1.4063    1.1571 N   0  0  0  0  0  0  0  0  0  0  0  0
   -8.9463    2.7901    0.6685 C   0  0  2  0  0  0  0  0  0  0  0  0
  -10.3750    3.3335    0.8288 C   0  0  0  0  0  0  0  0  0  0  0  0
   -8.5496    2.8579   -0.7910 C   0  0  0  0  0  0  0  0  0  0  0  0
   -9.1577    2.1202   -1.6145 O   0  0  0  0  0  0  0  0  0  0  0  0
   -7.4801    3.6948   -1.2768 N   0  0  0  0  0  0  0  0  0  0  0  0
   -6.9032    4.8489   -0.5636 C   0  0  2  0  0  0  0  0  0  0  0  0
   -7.9457    5.9661   -0.4278 C   0  0  0  0  0  0  0  0  0  0  0  0
   -5.6938    5.3889   -1.3086 C   0  0  0  0  0  0  0  0  0  0  0  0
   -5.8271    5.6946   -2.5255 O   0  0  0  0  0  0  0  0  0  0  0  0
   -4.4132    5.6035   -0.6849 N   0  0  0  0  0  0  0  0  0  0  0  0
   -4.1077    5.3626    0.7351 C   0  0  2  0  0  0  0  0  0  0  0  0
   -4.7471    6.4420    1.6167 C   0  0  0  0  0  0  0  0  0  0  0  0
   -2.6183    5.3447    0.9678 C   0  0  0  0  0  0  0  0  0  0  0  0
   -2.0975    4.3328    1.5061 O   0  0  0  0  0  0  0  0  0  0  0  0
   -1.8142    6.5057    0.6873 N   0  0  0  0  0  0  0  0  0  0  0  0
   -0.4606    6.6450    1.2499 C   0  0  2  0  0  0  0  0  0  0  0  0
   -0.0468    8.0962    1.2879 C   0  0  0  0  0  0  0  0  0  0  0  0
   -0.0349    8.8933    0.1017 N   0  0  0  0  0  0  0  0  0  0  0  0
    0.3090    8.6096    2.3796 O   0  0  0  0  0  0  0  0  0  0  0  0
    0.5492    5.8192    0.4263 C   0  0  0  0  0  0  0  0  0  0  0  0
    2.1182    5.6420    1.3588 S   0  0  0  0  0  0  0  0  0  0  0  0
    3.2901    6.0391    0.0117 C   0  0  0  0  0  0  0  0  0  0  0  0
   13.4564    0.9920   -1.6040 H   0  0  0  0  0  0  0  0  0  0  0  0
   12.4226   -0.2318   -0.7889 H   0  0  0  0  0  0  0  0  0  0  0  0
   11.7087    0.8981   -2.0167 H   0  0  0  0  0  0  0  0  0  0  0  0
   10.7013    2.5081    1.3094 H   0  0  0  0  0  0  0  0  0  0  0  0
    9.9647    0.2447   -0.6212 H   0  0  0  0  0  0  0  0  0  0  0  0
    7.5830    0.9707   -0.1271 H   0  0  0  0  0  0  0  0  0  0  0  0
    8.2342    2.4047    0.7193 H   0  0  0  0  0  0  0  0  0  0  0  0
    7.8156    4.7038   -2.1481 H   0  0  0  0  0  0  0  0  0  0  0  0
    8.0767    4.4255   -0.4046 H   0  0  0  0  0  0  0  0  0  0  0  0
    5.9701    5.7591   -0.2780 H   0  0  0  0  0  0  0  0  0  0  0  0
    2.2725    3.6412   -0.8166 H   0  0  0  0  0  0  0  0  0  0  0  0
    5.9692    1.8635   -2.0903 H   0  0  0  0  0  0  0  0  0  0  0  0
    2.6916    1.6674   -2.8220 H   0  0  0  0  0  0  0  0  0  0  0  0
    2.4487    1.1464   -1.1290 H   0  0  0  0  0  0  0  0  0  0  0  0
    3.5613   -0.6646    0.0682 H   0  0  0  0  0  0  0  0  0  0  0  0
    5.0686    0.2909   -0.0102 H   0  0  0  0  0  0  0  0  0  0  0  0
    5.5256   -1.9833    0.7468 H   0  0  0  0  0  0  0  0  0  0  0  0
    6.6294   -1.4631   -2.0564 H   0  0  0  0  0  0  0  0  0  0  0  0
    7.4376   -1.5898    1.5670 H   0  0  0  0  0  0  0  0  0  0  0  0
    8.5628   -3.6128    2.5065 H   0  0  0  0  0  0  0  0  0  0  0  0
    7.3125   -4.0515    1.2788 H   0  0  0  0  0  0  0  0  0  0  0  0
    9.0671   -4.1087    0.8391 H   0  0  0  0  0  0  0  0  0  0  0  0
   10.3984   -1.8990    1.0448 H   0  0  0  0  0  0  0  0  0  0  0  0
    2.9289   -2.8952    0.4258 H   0  0  0  0  0  0  0  0  0  0  0  0
    2.5451   -5.0533    1.0267 H   0  0  0  0  0  0  0  0  0  0  0  0
    4.4321   -6.4879    1.4923 H   0  0  0  0  0  0  0  0  0  0  0  0
    5.5087   -5.5186    0.4179 H   0  0  0  0  0  0  0  0  0  0  0  0
    4.8243   -4.7857    1.9232 H   0  0  0  0  0  0  0  0  0  0  0  0
    1.7165   -7.0540   -2.0008 H   0  0  0  0  0  0  0  0  0  0  0  0
    0.5903   -5.0891   -0.0264 H   0  0  0  0  0  0  0  0  0  0  0  0
    0.4268   -8.1529    0.4147 H   0  0  0  0  0  0  0  0  0  0  0  0
   -0.3899   -6.8790    1.3997 H   0  0  0  0  0  0  0  0  0  0  0  0
    1.3967   -7.0211    1.4150 H   0  0  0  0  0  0  0  0  0  0  0  0
   -1.7098   -8.0310   -1.6360 H   0  0  0  0  0  0  0  0  0  0  0  0
   -2.6565   -5.9880    0.3757 H   0  0  0  0  0  0  0  0  0  0  0  0
   -3.8809   -8.6827   -0.4138 H   0  0  0  0  0  0  0  0  0  0  0  0
   -4.4873   -7.5433    0.8582 H   0  0  0  0  0  0  0  0  0  0  0  0
   -2.8783   -8.3373    1.0451 H   0  0  0  0  0  0  0  0  0  0  0  0
   -4.7903   -4.4512   -2.3112 H   0  0  0  0  0  0  0  0  0  0  0  0
   -4.6102   -2.7983   -0.7828 H   0  0  0  0  0  0  0  0  0  0  0  0
   -2.5290   -2.2960    0.2026 H   0  0  0  0  0  0  0  0  0  0  0  0
   -1.9343   -3.9803    0.1027 H   0  0  0  0  0  0  0  0  0  0  0  0
   -2.2230   -3.0428   -1.4051 H   0  0  0  0  0  0  0  0  0  0  0  0
   -6.2145   -3.6075    2.2648 H   0  0  0  0  0  0  0  0  0  0  0  0
   -8.0990   -3.7822    1.0218 H   0  0  0  0  0  0  0  0  0  0  0  0
   -6.5269   -5.6697   -0.7981 H   0  0  0  0  0  0  0  0  0  0  0  0
   -8.3090   -5.5371   -0.6046 H   0  0  0  0  0  0  0  0  0  0  0  0
   -7.2924   -6.0912    0.7721 H   0  0  0  0  0  0  0  0  0  0  0  0
   -7.2539   -0.8703   -1.2728 H   0  0  0  0  0  0  0  0  0  0  0  0
   -7.6407   -1.4849    1.6268 H   0  0  0  0  0  0  0  0  0  0  0  0
   -9.7673   -2.3890    0.4171 H   0  0  0  0  0  0  0  0  0  0  0  0
  -10.1044   -0.7020   -0.0840 H   0  0  0  0  0  0  0  0  0  0  0  0
  -10.0580   -1.1548    1.6732 H   0  0  0  0  0  0  0  0  0  0  0  0
   -9.6459    1.0902    1.8194 H   0  0  0  0  0  0  0  0  0  0  0  0
   -8.2748    3.4023    1.2974 H   0  0  0  0  0  0  0  0  0  0  0  0
  -10.4931    4.3276    0.3572 H   0  0  0  0  0  0  0  0  0  0  0  0
  -10.6264    3.4216    1.9102 H   0  0  0  0  0  0  0  0  0  0  0  0
  -11.1009    2.6375    0.3491 H   0  0  0  0  0  0  0  0  0  0  0  0
   -7.1273    3.4744   -2.2395 H   0  0  0  0  0  0  0  0  0  0  0  0
   -6.6039    4.5169    0.4427 H   0  0  0  0  0  0  0  0  0  0  0  0
   -7.4716    6.9081   -0.0771 H   0  0  0  0  0  0  0  0  0  0  0  0
   -8.7099    5.6932    0.3202 H   0  0  0  0  0  0  0  0  0  0  0  0
   -8.4320    6.1649   -1.4051 H   0  0  0  0  0  0  0  0  0  0  0  0
   -3.6605    6.0044   -1.3006 H   0  0  0  0  0  0  0  0  0  0  0  0
   -4.5064    4.3672    1.0310 H   0  0  0  0  0  0  0  0  0  0  0  0
   -4.3831    7.4549    1.3439 H   0  0  0  0  0  0  0  0  0  0  0  0
   -4.5016    6.2496    2.6844 H   0  0  0  0  0  0  0  0  0  0  0  0
   -5.8451    6.4345    1.5233 H   0  0  0  0  0  0  0  0  0  0  0  0
   -2.2728    7.3279    0.2366 H   0  0  0  0  0  0  0  0  0  0  0  0
   -0.4793    6.2552    2.2921 H   0  0  0  0  0  0  0  0  0  0  0  0
    0.3076    9.8764    0.1294 H   0  0  0  0  0  0  0  0  0  0  0  0
   -0.3439    8.4938   -0.8109 H   0  0  0  0  0  0  0  0  0  0  0  0
    0.6840    6.2909   -0.5650 H   0  0  0  0  0  0  0  0  0  0  0  0
    0.1495    4.8014    0.2476 H   0  0  0  0  0  0  0  0  0  0  0  0
    3.9954    6.7828    0.4310 H   0  0  0  0  0  0  0  0  0  0  0  0
    2.8045    6.5346   -0.8509 H   0  0  0  0  0  0  0  0  0  0  0  0
  1  2  1  0
  2  3  2  0
  2  4  1  0
  4  5  1  0
  5  6  1  0
  6  7  1  0
  7  8  1  0
  8  9  1  0
  9 10  1  0
 10 11  2  0
 11 12  1  0
 12 13  2  0
 13 14  1  0
 13 15  1  0
 15 16  1  0
 16 17  1  0
 17 18  1  0
 18 19  1  0
 19 20  1  0
 20 21  2  0
 20 22  1  0
 22 23  1  0
 22 24  1  0
 24 25  1  0
 25 26  2  0
 18 27  1  0
 27 28  2  0
 27 29  1  0
 29 30  1  0
 30 31  1  0
 30 32  1  0
 32 33  2  0
 32 34  1  0
 34 35  1  0
 35 36  1  0
 35 37  1  0
 37 38  2  0
 37 39  1  0
 39 40  1  0
 40 41  1  0
 40 42  1  0
 42 43  2  0
 42 44  1  0
 44 45  1  0
 45 46  1  0
 45 47  1  0
 47 48  2  0
 47 49  1  0
 49 50  1  0
 50 51  1  0
 50 52  1  0
 52 53  2  0
 52 54  1  0
 54 55  1  0
 55 56  1  0
 55 57  1  0
 57 58  2  0
 57 59  1  0
 59 60  1  0
 60 61  1  0
 60 62  1  0
 62 63  2  0
 62 64  1  0
 64 65  1  0
 65 66  1  0
 65 67  1  0
 67 68  2  0
 67 69  1  0
 69 70  1  0
 70 71  1  0
 70 72  1  0
 72 73  2  0
 72 74  1  0
 74 75  1  0
 75 76  1  0
 76 77  1  0
 76 78  2  0
 75 79  1  0
 79 80  1  0
 80 81  1  0
 25  5  1  0
 14  9  2  0
 81 11  1  0
  1 82  1  0
  1 83  1  0
  1 84  1  0
  4 85  1  0
  5 86  1  6
  6 87  1  0
  6 88  1  0
  8 89  1  0
  8 90  1  0
 10 91  1  0
 12 92  1  0
 14 93  1  0
 15 94  1  0
 15 95  1  0
 17 96  1  0
 17 97  1  0
 18 98  1  1
 19 99  1  0
 22100  1  1
 23101  1  0
 23102  1  0
 23103  1  0
 24104  1  0
 29105  1  0
 30106  1  1
 31107  1  0
 31108  1  0
 31109  1  0
 34110  1  0
 35111  1  1
 36112  1  0
 36113  1  0
 36114  1  0
 39115  1  0
 40116  1  1
 41117  1  0
 41118  1  0
 41119  1  0
 44120  1  0
 45121  1  6
 46122  1  0
 46123  1  0
 46124  1  0
 49125  1  0
 50126  1  1
 51127  1  0
 51128  1  0
 51129  1  0
 54130  1  0
 55131  1  1
 56132  1  0
 56133  1  0
 56134  1  0
 59135  1  0
 60136  1  1
 61137  1  0
 61138  1  0
 61139  1  0
 64140  1  0
 65141  1  1
 66142  1  0
 66143  1  0
 66144  1  0
 69145  1  0
 70146  1  1
 71147  1  0
 71148  1  0
 71149  1  0
 74150  1  0
 75151  1  1
 77152  1  0
 77153  1  0
 79154  1  0
 79155  1  0
 81156  1  0
 81157  1  0
M  END
