
     RDKit          3D

207209  0  0  0  0  0  0  0  0999 V2000
   -0.9217  -10.6127   -1.8472 C   0  0  0  0  0  0  0  0  0  0  0  0
   -0.1067   -9.4009   -1.5260 C   0  0  0  0  0  0  0  0  0  0  0  0
    0.3069   -8.6666   -2.4667 O   0  0  0  0  0  0  0  0  0  0  0  0
    0.2116   -9.0924   -0.1602 N   0  0  0  0  0  0  0  0  0  0  0  0
    0.9559   -7.8848    0.2053 C   0  0  1  0  0  0  0  0  0  0  0  0
    0.0247   -6.6594    0.1191 C   0  0  0  0  0  0  0  0  0  0  0  0
    0.9688   -5.1078    0.3683 S   0  0  0  0  0  0  0  0  0  0  0  0
    0.0756   -4.0752   -0.8535 C   0  0  0  0  0  0  0  0  0  0  0  0
   -1.2187   -3.5498   -0.2821 C   0  0  0  0  0  0  0  0  0  0  0  0
   -1.2974   -2.2310    0.1991 C   0  0  0  0  0  0  0  0  0  0  0  0
   -2.5129   -1.7196    0.6870 C   0  0  0  0  0  0  0  0  0  0  0  0
   -3.6546   -2.5410    0.6909 C   0  0  0  0  0  0  0  0  0  0  0  0
   -3.5919   -3.8558    0.2020 C   0  0  0  0  0  0  0  0  0  0  0  0
   -2.3762   -4.3453   -0.2994 C   0  0  0  0  0  0  0  0  0  0  0  0
   -4.8391   -4.6935    0.0900 C   0  0  0  0  0  0  0  0  0  0  0  0
   -5.5409   -4.4978   -1.5802 S   0  0  0  0  0  0  0  0  0  0  0  0
   -6.7422   -3.1599   -1.1964 C   0  0  0  0  0  0  0  0  0  0  0  0
   -8.1533   -3.6449   -0.7607 C   0  0  1  0  0  0  0  0  0  0  0  0
   -8.4751   -5.0334   -1.2489 C   0  0  0  0  0  0  0  0  0  0  0  0
   -9.0050   -5.2292   -2.5612 N   0  0  0  0  0  0  0  0  0  0  0  0
   -8.2682   -6.0321   -0.5081 O   0  0  0  0  0  0  0  0  0  0  0  0
   -8.3488   -3.5489    0.6943 N   0  0  0  0  0  0  0  0  0  0  0  0
   -9.6440   -3.5235    1.3195 C   0  0  0  0  0  0  0  0  0  0  0  0
   -9.7078   -3.4377    2.5755 O   0  0  0  0  0  0  0  0  0  0  0  0
  -10.9283   -3.5043    0.5096 C   0  0  1  0  0  0  0  0  0  0  0  0
  -12.0854   -4.2034    1.2334 C   0  0  0  0  0  0  0  0  0  0  0  0
  -11.2537   -2.1245    0.1526 N   0  0  0  0  0  0  0  0  0  0  0  0
  -11.5885   -1.1178    1.1169 C   0  0  0  0  0  0  0  0  0  0  0  0
  -12.5551   -1.3051    1.9063 O   0  0  0  0  0  0  0  0  0  0  0  0
  -10.8463    0.1944    1.1786 C   0  0  1  0  0  0  0  0  0  0  0  0
  -10.2298    0.3938    2.5681 C   0  0  0  0  0  0  0  0  0  0  0  0
   -9.7828    0.2674    0.1687 N   0  0  0  0  0  0  0  0  0  0  0  0
   -9.4234    1.4513   -0.5678 C   0  0  0  0  0  0  0  0  0  0  0  0
   -8.2267    1.5924   -0.9349 O   0  0  0  0  0  0  0  0  0  0  0  0
  -10.4305    2.4920   -1.0190 C   0  0  1  0  0  0  0  0  0  0  0  0
  -11.4973    1.8387   -1.9102 C   0  0  0  0  0  0  0  0  0  0  0  0
  -11.0502    3.1892    0.1146 N   0  0  0  0  0  0  0  0  0  0  0  0
  -10.3855    4.1257    0.9812 C   0  0  0  0  0  0  0  0  0  0  0  0
  -11.0292    4.5874    1.9642 O   0  0  0  0  0  0  0  0  0  0  0  0
   -9.0086    4.6909    0.6834 C   0  0  1  0  0  0  0  0  0  0  0  0
   -9.1714    6.0419   -0.0096 C   0  0  0  0  0  0  0  0  0  0  0  0
   -8.2276    4.8234    1.9245 N   0  0  0  0  0  0  0  0  0  0  0  0
   -6.8000    5.0327    2.0109 C   0  0  0  0  0  0  0  0  0  0  0  0
   -6.2878    5.1440    3.1606 O   0  0  0  0  0  0  0  0  0  0  0  0
   -5.8975    5.1845    0.8013 C   0  0  1  0  0  0  0  0  0  0  0  0
   -5.5008    6.6583    0.6354 C   0  0  0  0  0  0  0  0  0  0  0  0
   -4.6765    4.3825    0.9873 N   0  0  0  0  0  0  0  0  0  0  0  0
   -3.9834    3.8023   -0.1250 C   0  0  0  0  0  0  0  0  0  0  0  0
   -4.6281    3.3847   -1.1275 O   0  0  0  0  0  0  0  0  0  0  0  0
   -2.4832    3.6324   -0.0611 C   0  0  1  0  0  0  0  0  0  0  0  0
   -2.0877    2.3413    0.6827 C   0  0  0  0  0  0  0  0  0  0  0  0
   -2.5170    0.8376   -0.2684 S   0  0  0  0  0  0  0  0  0  0  0  0
   -2.5891   -0.2957    1.1665 C   0  0  0  0  0  0  0  0  0  0  0  0
   -1.8997    3.6606   -1.4047 N   0  0  0  0  0  0  0  0  0  0  0  0
   -0.8112    4.5278   -1.7391 C   0  0  0  0  0  0  0  0  0  0  0  0
    0.3276    4.0238   -1.9098 O   0  0  0  0  0  0  0  0  0  0  0  0
   -1.0115    6.0106   -1.9063 C   0  0  1  0  0  0  0  0  0  0  0  0
   -2.3485    6.3304   -2.5684 C   0  0  0  0  0  0  0  0  0  0  0  0
   -0.9074    6.6891   -0.6104 N   0  0  0  0  0  0  0  0  0  0  0  0
    0.3041    7.2586   -0.0720 C   0  0  0  0  0  0  0  0  0  0  0  0
    0.2169    8.0042    0.9399 O   0  0  0  0  0  0  0  0  0  0  0  0
    1.6624    7.0236   -0.6943 C   0  0  1  0  0  0  0  0  0  0  0  0
    2.0502    8.1875   -1.6116 C   0  0  0  0  0  0  0  0  0  0  0  0
    2.6681    6.7761    0.3454 N   0  0  0  0  0  0  0  0  0  0  0  0
    3.4009    7.8195    1.0032 C   0  0  0  0  0  0  0  0  0  0  0  0
    2.9309    8.3421    2.0483 O   0  0  0  0  0  0  0  0  0  0  0  0
    4.7761    8.2116    0.5222 C   0  0  1  0  0  0  0  0  0  0  0  0
    4.8754    9.7194    0.2988 C   0  0  0  0  0  0  0  0  0  0  0  0
    5.7716    7.7983    1.5181 N   0  0  0  0  0  0  0  0  0  0  0  0
    6.8729    6.9008    1.2829 C   0  0  0  0  0  0  0  0  0  0  0  0
    7.7881    6.8405    2.1474 O   0  0  0  0  0  0  0  0  0  0  0  0
    7.0068    6.0746    0.0261 C   0  0  1  0  0  0  0  0  0  0  0  0
    7.7202    6.8999   -1.0597 C   0  0  0  0  0  0  0  0  0  0  0  0
    7.7038    4.8176    0.3390 N   0  0  0  0  0  0  0  0  0  0  0  0
    8.6048    4.1556   -0.5583 C   0  0  0  0  0  0  0  0  0  0  0  0
    8.1468    3.2859   -1.3474 O   0  0  0  0  0  0  0  0  0  0  0  0
   10.0686    4.5476   -0.6219 C   0  0  1  0  0  0  0  0  0  0  0  0
   10.5948    5.1133    0.7008 C   0  0  0  0  0  0  0  0  0  0  0  0
   10.9097    3.4435   -1.1076 N   0  0  0  0  0  0  0  0  0  0  0  0
   10.8243    2.0733   -0.6699 C   0  0  0  0  0  0  0  0  0  0  0  0
   10.7511    1.1781   -1.5514 O   0  0  0  0  0  0  0  0  0  0  0  0
   10.9055    1.6964    0.7964 C   0  0  1  0  0  0  0  0  0  0  0  0
    9.5370    1.3924    1.4165 C   0  0  0  0  0  0  0  0  0  0  0  0
   11.8910    0.6329    1.0548 N   0  0  0  0  0  0  0  0  0  0  0  0
   11.9872   -0.6817    0.4683 C   0  0  0  0  0  0  0  0  0  0  0  0
   13.1013   -1.2741    0.5068 O   0  0  0  0  0  0  0  0  0  0  0  0
   10.8023   -1.4362   -0.0940 C   0  0  1  0  0  0  0  0  0  0  0  0
   11.1619   -2.0748   -1.4454 C   0  0  0  0  0  0  0  0  0  0  0  0
   10.3723   -2.4620    0.8541 N   0  0  0  0  0  0  0  0  0  0  0  0
    9.1280   -3.1417    0.7004 C   0  0  0  0  0  0  0  0  0  0  0  0
    8.0526   -2.5339    0.9766 O   0  0  0  0  0  0  0  0  0  0  0  0
    9.0857   -4.5383    0.1438 C   0  0  1  0  0  0  0  0  0  0  0  0
   10.2273   -5.4110    0.6882 C   0  0  0  0  0  0  0  0  0  0  0  0
    7.8073   -5.1843    0.4434 N   0  0  0  0  0  0  0  0  0  0  0  0
    6.9293   -5.5985   -0.6130 C   0  0  0  0  0  0  0  0  0  0  0  0
    6.6157   -4.7811   -1.5177 O   0  0  0  0  0  0  0  0  0  0  0  0
    6.4696   -7.0309   -0.7193 C   0  0  1  0  0  0  0  0  0  0  0  0
    7.3665   -7.7865   -1.7053 C   0  0  0  0  0  0  0  0  0  0  0  0
    6.5134   -7.6937    0.5901 N   0  0  0  0  0  0  0  0  0  0  0  0
    5.3859   -8.1294    1.3722 C   0  0  0  0  0  0  0  0  0  0  0  0
    5.6098   -8.5426    2.5400 O   0  0  0  0  0  0  0  0  0  0  0  0
    3.9897   -8.2454    0.7992 C   0  0  1  0  0  0  0  0  0  0  0  0
    3.8889   -9.5936    0.0703 C   0  0  0  0  0  0  0  0  0  0  0  0
    2.9555   -8.1466    1.8481 N   0  0  0  0  0  0  0  0  0  0  0  0
    1.5433   -8.0385    1.5979 C   0  0  0  0  0  0  0  0  0  0  0  0
    0.7493   -8.0886    2.5827 O   0  0  0  0  0  0  0  0  0  0  0  0
   -1.9000  -10.5535   -1.3279 H   0  0  0  0  0  0  0  0  0  0  0  0
   -0.3790  -11.5215   -1.5102 H   0  0  0  0  0  0  0  0  0  0  0  0
   -1.0960  -10.6804   -2.9417 H   0  0  0  0  0  0  0  0  0  0  0  0
   -0.0594   -9.7850    0.5776 H   0  0  0  0  0  0  0  0  0  0  0  0
    1.7578   -7.7323   -0.5391 H   0  0  0  0  0  0  0  0  0  0  0  0
   -0.4496   -6.6682   -0.8822 H   0  0  0  0  0  0  0  0  0  0  0  0
   -0.7828   -6.7258    0.8808 H   0  0  0  0  0  0  0  0  0  0  0  0
    0.7400   -3.2296   -1.1355 H   0  0  0  0  0  0  0  0  0  0  0  0
   -0.1189   -4.6257   -1.7930 H   0  0  0  0  0  0  0  0  0  0  0  0
   -0.4216   -1.5912    0.1730 H   0  0  0  0  0  0  0  0  0  0  0  0
   -4.5927   -2.1499    1.0598 H   0  0  0  0  0  0  0  0  0  0  0  0
   -2.3384   -5.3445   -0.7135 H   0  0  0  0  0  0  0  0  0  0  0  0
   -4.5816   -5.7622    0.2117 H   0  0  0  0  0  0  0  0  0  0  0  0
   -5.5678   -4.4378    0.8774 H   0  0  0  0  0  0  0  0  0  0  0  0
   -6.8656   -2.5757   -2.1336 H   0  0  0  0  0  0  0  0  0  0  0  0
   -6.3184   -2.4417   -0.4654 H   0  0  0  0  0  0  0  0  0  0  0  0
   -8.8765   -2.9380   -1.2320 H   0  0  0  0  0  0  0  0  0  0  0  0
   -9.1851   -6.1884   -2.9182 H   0  0  0  0  0  0  0  0  0  0  0  0
   -9.2344   -4.4109   -3.1621 H   0  0  0  0  0  0  0  0  0  0  0  0
   -7.5272   -3.3610    1.3156 H   0  0  0  0  0  0  0  0  0  0  0  0
  -10.7749   -4.0719   -0.4245 H   0  0  0  0  0  0  0  0  0  0  0  0
  -12.2796   -3.7534    2.2289 H   0  0  0  0  0  0  0  0  0  0  0  0
  -11.8434   -5.2727    1.3835 H   0  0  0  0  0  0  0  0  0  0  0  0
  -13.0070   -4.1354    0.6215 H   0  0  0  0  0  0  0  0  0  0  0  0
  -11.1096   -1.8309   -0.8415 H   0  0  0  0  0  0  0  0  0  0  0  0
  -11.5976    0.9868    1.0187 H   0  0  0  0  0  0  0  0  0  0  0  0
   -9.5179   -0.4248    2.8024 H   0  0  0  0  0  0  0  0  0  0  0  0
   -9.6945    1.3626    2.5987 H   0  0  0  0  0  0  0  0  0  0  0  0
  -11.0239    0.4015    3.3449 H   0  0  0  0  0  0  0  0  0  0  0  0
   -9.0834   -0.5140    0.1637 H   0  0  0  0  0  0  0  0  0  0  0  0
   -9.9166    3.2459   -1.6571 H   0  0  0  0  0  0  0  0  0  0  0  0
  -12.0077    1.0038   -1.3904 H   0  0  0  0  0  0  0  0  0  0  0  0
  -12.2590    2.5906   -2.2129 H   0  0  0  0  0  0  0  0  0  0  0  0
  -11.0258    1.4412   -2.8352 H   0  0  0  0  0  0  0  0  0  0  0  0
  -12.0787    3.0759    0.2580 H   0  0  0  0  0  0  0  0  0  0  0  0
   -8.4732    3.9927    0.0036 H   0  0  0  0  0  0  0  0  0  0  0  0
   -9.5219    6.8141    0.7111 H   0  0  0  0  0  0  0  0  0  0  0  0
   -9.9131    5.9655   -0.8354 H   0  0  0  0  0  0  0  0  0  0  0  0
   -8.2223    6.3740   -0.4654 H   0  0  0  0  0  0  0  0  0  0  0  0
   -8.7237    4.7273    2.8391 H   0  0  0  0  0  0  0  0  0  0  0  0
   -6.4257    4.8596   -0.1172 H   0  0  0  0  0  0  0  0  0  0  0  0
   -4.9362    7.0120    1.5249 H   0  0  0  0  0  0  0  0  0  0  0  0
   -6.3953    7.3067    0.5238 H   0  0  0  0  0  0  0  0  0  0  0  0
   -4.8567    6.7835   -0.2625 H   0  0  0  0  0  0  0  0  0  0  0  0
   -4.1477    4.5048    1.8793 H   0  0  0  0  0  0  0  0  0  0  0  0
   -2.0749    4.4802    0.5365 H   0  0  0  0  0  0  0  0  0  0  0  0
   -2.5939    2.3289    1.6764 H   0  0  0  0  0  0  0  0  0  0  0  0
   -0.9891    2.3371    0.8512 H   0  0  0  0  0  0  0  0  0  0  0  0
   -3.5412   -0.1198    1.7116 H   0  0  0  0  0  0  0  0  0  0  0  0
   -1.7474   -0.1051    1.8734 H   0  0  0  0  0  0  0  0  0  0  0  0
   -2.1497    2.9102   -2.0938 H   0  0  0  0  0  0  0  0  0  0  0  0
   -0.2227    6.3903   -2.5971 H   0  0  0  0  0  0  0  0  0  0  0  0
   -3.2050    6.0207   -1.9225 H   0  0  0  0  0  0  0  0  0  0  0  0
   -2.4290    7.4219   -2.7605 H   0  0  0  0  0  0  0  0  0  0  0  0
   -2.4307    5.7933   -3.5416 H   0  0  0  0  0  0  0  0  0  0  0  0
   -1.7844    6.8308   -0.0554 H   0  0  0  0  0  0  0  0  0  0  0  0
    1.6374    6.1141   -1.3313 H   0  0  0  0  0  0  0  0  0  0  0  0
    2.0241    9.1518   -1.0548 H   0  0  0  0  0  0  0  0  0  0  0  0
    1.3444    8.2680   -2.4644 H   0  0  0  0  0  0  0  0  0  0  0  0
    3.0703    8.0280   -2.0228 H   0  0  0  0  0  0  0  0  0  0  0  0
    2.6527    5.8465    0.8214 H   0  0  0  0  0  0  0  0  0  0  0  0
    4.9502    7.7231   -0.4524 H   0  0  0  0  0  0  0  0  0  0  0  0
    5.8877    9.9677   -0.0791 H   0  0  0  0  0  0  0  0  0  0  0  0
    4.1274   10.0466   -0.4550 H   0  0  0  0  0  0  0  0  0  0  0  0
    4.7027   10.2719    1.2450 H   0  0  0  0  0  0  0  0  0  0  0  0
    5.7126    8.2321    2.4652 H   0  0  0  0  0  0  0  0  0  0  0  0
    5.9973    5.7971   -0.3481 H   0  0  0  0  0  0  0  0  0  0  0  0
    7.1477    7.8221   -1.2949 H   0  0  0  0  0  0  0  0  0  0  0  0
    7.8053    6.3152   -1.9990 H   0  0  0  0  0  0  0  0  0  0  0  0
    8.7313    7.1995   -0.7219 H   0  0  0  0  0  0  0  0  0  0  0  0
    7.2601    4.2063    1.0633 H   0  0  0  0  0  0  0  0  0  0  0  0
   10.1423    5.3690   -1.3676 H   0  0  0  0  0  0  0  0  0  0  0  0
   11.7037    5.1446    0.6883 H   0  0  0  0  0  0  0  0  0  0  0  0
   10.2506    4.5250    1.5757 H   0  0  0  0  0  0  0  0  0  0  0  0
   10.2387    6.1549    0.8437 H   0  0  0  0  0  0  0  0  0  0  0  0
   11.3847    3.6007   -2.0306 H   0  0  0  0  0  0  0  0  0  0  0  0
   11.2855    2.5860    1.3284 H   0  0  0  0  0  0  0  0  0  0  0  0
    8.9863    2.3380    1.5887 H   0  0  0  0  0  0  0  0  0  0  0  0
    9.6721    0.9053    2.3988 H   0  0  0  0  0  0  0  0  0  0  0  0
    8.8925    0.7680    0.7665 H   0  0  0  0  0  0  0  0  0  0  0  0
   12.7076    0.9143    1.6449 H   0  0  0  0  0  0  0  0  0  0  0  0
    9.9597   -0.7538   -0.2807 H   0  0  0  0  0  0  0  0  0  0  0  0
   10.2532   -2.4947   -1.9277 H   0  0  0  0  0  0  0  0  0  0  0  0
   11.5942   -1.3160   -2.1328 H   0  0  0  0  0  0  0  0  0  0  0  0
   11.9025   -2.8901   -1.3133 H   0  0  0  0  0  0  0  0  0  0  0  0
   11.0454   -2.8353    1.5622 H   0  0  0  0  0  0  0  0  0  0  0  0
    9.2118   -4.4625   -0.9572 H   0  0  0  0  0  0  0  0  0  0  0  0
   10.1105   -6.4544    0.3250 H   0  0  0  0  0  0  0  0  0  0  0  0
   10.2301   -5.4159    1.7990 H   0  0  0  0  0  0  0  0  0  0  0  0
   11.2073   -5.0405    0.3246 H   0  0  0  0  0  0  0  0  0  0  0  0
    7.6015   -5.4654    1.4297 H   0  0  0  0  0  0  0  0  0  0  0  0
    5.4527   -7.0317   -1.1492 H   0  0  0  0  0  0  0  0  0  0  0  0
    7.0433   -8.8452   -1.7750 H   0  0  0  0  0  0  0  0  0  0  0  0
    7.2900   -7.3345   -2.7186 H   0  0  0  0  0  0  0  0  0  0  0  0
    8.4251   -7.7514   -1.3752 H   0  0  0  0  0  0  0  0  0  0  0  0
    7.4600   -7.8367    1.0160 H   0  0  0  0  0  0  0  0  0  0  0  0
    3.8208   -7.4131    0.0964 H   0  0  0  0  0  0  0  0  0  0  0  0
    2.8894   -9.7372   -0.3841 H   0  0  0  0  0  0  0  0  0  0  0  0
    4.6403   -9.6426   -0.7433 H   0  0  0  0  0  0  0  0  0  0  0  0
    4.0664  -10.4279    0.7850 H   0  0  0  0  0  0  0  0  0  0  0  0
    3.2394   -8.1748    2.8529 H   0  0  0  0  0  0  0  0  0  0  0  0
  1  2  1  0
  2  3  2  0
  2  4  1  0
  4  5  1  0
  5  6  1  0
  6  7  1  0
  7  8  1  0
  8  9  1  0
  9 10  2  0
 10 11  1  0
 11 12  2  0
 12 13  1  0
 13 14  2  0
 13 15  1  0
 15 16  1  0
 16 17  1  0
 17 18  1  0
 18 19  1  0
 19 20  1  0
 19 21  2  0
 18 22  1  0
 22 23  1  0
 23 24  2  0
 23 25  1  0
 25 26  1  0
 25 27  1  0
 27 28  1  0
 28 29  2  0
 28 30  1  0
 30 31  1  0
 30 32  1  0
 32 33  1  0
 33 34  2  0
 33 35  1  0
 35 36  1  0
 35 37  1  0
 37 38  1  0
 38 39  2  0
 38 40  1  0
 40 41  1  0
 40 42  1  0
 42 43  1  0
 43 44  2  0
 43 45  1  0
 45 46  1  0
 45 47  1  0
 47 48  1  0
 48 49  2  0
 48 50  1  0
 50 51  1  0
 51 52  1  0
 52 53  1  0
 50 54  1  0
 54 55  1  0
 55 56  2  0
 55 57  1  0
 57 58  1  0
 57 59  1  0
 59 60  1  0
 60 61  2  0
 60 62  1  0
 62 63  1  0
 62 64  1  0
 64 65  1  0
 65 66  2  0
 65 67  1  0
 67 68  1  0
 67 69  1  0
 69 70  1  0
 70 71  2  0
 70 72  1  0
 72 73  1  0
 72 74  1  0
 74 75  1  0
 75 76  2  0
 75 77  1  0
 77 78  1  0
 77 79  1  0
 79 80  1  0
 80 81  2  0
 80 82  1  0
 82 83  1  0
 82 84  1  0
 84 85  1  0
 85 86  2  0
 85 87  1  0
 87 88  1  0
 87 89  1  0
 89 90  1  0
 90 91  2  0
 90 92  1  0
 92 93  1  0
 92 94  1  0
 94 95  1  0
 95 96  2  0
 95 97  1  0
 97 98  1  0
 97 99  1  0
 99100  1  0
100101  2  0
100102  1  0
102103  1  0
102104  1  0
104105  1  0
105106  2  0
105  5  1  0
 14  9  1  0
 53 11  1  0
  1107  1  0
  1108  1  0
  1109  1  0
  4110  1  0
  5111  1  6
  6112  1  0
  6113  1  0
  8114  1  0
  8115  1  0
 10116  1  0
 12117  1  0
 14118  1  0
 15119  1  0
 15120  1  0
 17121  1  0
 17122  1  0
 18123  1  6
 20124  1  0
 20125  1  0
 22126  1  0
 25127  1  6
 26128  1  0
 26129  1  0
 26130  1  0
 27131  1  0
 30132  1  6
 31133  1  0
 31134  1  0
 31135  1  0
 32136  1  0
 35137  1  6
 36138  1  0
 36139  1  0
 36140  1  0
 37141  1  0
 40142  1  6
 41143  1  0
 41144  1  0
 41145  1  0
 42146  1  0
 45147  1  6
 46148  1  0
 46149  1  0
 46150  1  0
 47151  1  0
 50152  1  1
 51153  1  0
 51154  1  0
 53155  1  0
 53156  1  0
 54157  1  0
 57158  1  6
 58159  1  0
 58160  1  0
 58161  1  0
 59162  1  0
 62163  1  6
 63164  1  0
 63165  1  0
 63166  1  0
 64167  1  0
 67168  1  6
 68169  1  0
 68170  1  0
 68171  1  0
 69172  1  0
 72173  1  6
 73174  1  0
 73175  1  0
 73176  1  0
 74177  1  0
 77178  1  6
 78179  1  0
 78180  1  0
 78181  1  0
 79182  1  0
 82183  1  1
 83184  1  0
 83185  1  0
 83186  1  0
 84187  1  0
 87188  1  6
 88189  1  0
 88190  1  0
 88191  1  0
 89192  1  0
 92193  1  6
 93194  1  0
 93195  1  0
 93196  1  0
 94197  1  0
 97198  1  6
 98199  1  0
 98200  1  0
 98201  1  0
 99202  1  0
102203  1  6
103204  1  0
103205  1  0
103206  1  0
104207  1  0
M  END
