
     RDKit          3D

217219  0  0  0  0  0  0  0  0999 V2000
    2.7046  -10.4567    0.0193 C   0  0  0  0  0  0  0  0  0  0  0  0
    2.3091   -9.8643   -1.3006 C   0  0  0  0  0  0  0  0  0  0  0  0
    2.0172  -10.6401   -2.2501 O   0  0  0  0  0  0  0  0  0  0  0  0
    2.3490   -8.4435   -1.5476 N   0  0  0  0  0  0  0  0  0  0  0  0
    2.1926   -7.3954   -0.5362 C   0  0  1  0  0  0  0  0  0  0  0  0
    0.7713   -7.4492    0.0663 C   0  0  0  0  0  0  0  0  0  0  0  0
    0.3694   -5.9328    1.0165 S   0  0  0  0  0  0  0  0  0  0  0  0
   -0.4238   -5.0353   -0.3667 C   0  0  0  0  0  0  0  0  0  0  0  0
   -1.2547   -3.8887    0.1418 C   0  0  0  0  0  0  0  0  0  0  0  0
   -2.2964   -4.1327    1.0431 C   0  0  0  0  0  0  0  0  0  0  0  0
   -3.1689   -3.1021    1.4402 C   0  0  0  0  0  0  0  0  0  0  0  0
   -2.9333   -1.7963    0.9734 C   0  0  0  0  0  0  0  0  0  0  0  0
   -1.8678   -1.5324    0.0801 C   0  0  0  0  0  0  0  0  0  0  0  0
   -1.0406   -2.5855   -0.3264 C   0  0  0  0  0  0  0  0  0  0  0  0
   -1.5246   -0.1485   -0.4357 C   0  0  0  0  0  0  0  0  0  0  0  0
   -2.8352    1.1153   -0.2297 S   0  0  0  0  0  0  0  0  0  0  0  0
   -1.8913    2.4496   -1.0438 C   0  0  0  0  0  0  0  0  0  0  0  0
   -2.6858    3.7716   -1.0920 C   0  0  1  0  0  0  0  0  0  0  0  0
   -1.7412    4.8957   -1.1037 N   0  0  0  0  0  0  0  0  0  0  0  0
   -1.6969    5.9030   -0.0806 C   0  0  0  0  0  0  0  0  0  0  0  0
   -2.2443    5.6890    1.0340 O   0  0  0  0  0  0  0  0  0  0  0  0
   -0.9353    7.1867   -0.3229 C   0  0  1  0  0  0  0  0  0  0  0  0
   -1.5495    8.3704    0.4301 C   0  0  0  0  0  0  0  0  0  0  0  0
    0.5020    7.0707   -0.0209 N   0  0  0  0  0  0  0  0  0  0  0  0
    1.0816    6.0098    0.7550 C   0  0  0  0  0  0  0  0  0  0  0  0
    0.5619    5.6936    1.8554 O   0  0  0  0  0  0  0  0  0  0  0  0
    2.1950    5.1516    0.1999 C   0  0  1  0  0  0  0  0  0  0  0  0
    2.6356    5.4786   -1.2337 C   0  0  0  0  0  0  0  0  0  0  0  0
    3.3298    5.0597    1.1278 N   0  0  0  0  0  0  0  0  0  0  0  0
    4.0990    6.1316    1.7089 C   0  0  0  0  0  0  0  0  0  0  0  0
    4.8955    5.8476    2.6443 O   0  0  0  0  0  0  0  0  0  0  0  0
    4.0055    7.5738    1.2640 C   0  0  1  0  0  0  0  0  0  0  0  0
    3.3473    8.4160    2.3621 C   0  0  0  0  0  0  0  0  0  0  0  0
    5.3502    8.0864    0.9714 N   0  0  0  0  0  0  0  0  0  0  0  0
    6.2291    7.4291    0.0322 C   0  0  0  0  0  0  0  0  0  0  0  0
    5.7300    6.7592   -0.9173 O   0  0  0  0  0  0  0  0  0  0  0  0
    7.7378    7.4483    0.1840 C   0  0  1  0  0  0  0  0  0  0  0  0
    8.2085    8.4919    1.2039 C   0  0  0  0  0  0  0  0  0  0  0  0
    8.2164    6.1014    0.5338 N   0  0  0  0  0  0  0  0  0  0  0  0
    9.6069    5.7494    0.5237 C   0  0  0  0  0  0  0  0  0  0  0  0
   10.4238    6.4085    1.2273 O   0  0  0  0  0  0  0  0  0  0  0  0
   10.0720    4.5216   -0.2293 C   0  0  1  0  0  0  0  0  0  0  0  0
    9.8544    4.7343   -1.7303 C   0  0  0  0  0  0  0  0  0  0  0  0
   11.4958    4.2577    0.0224 N   0  0  0  0  0  0  0  0  0  0  0  0
   12.0134    2.9605    0.3575 C   0  0  0  0  0  0  0  0  0  0  0  0
   13.0094    2.8838    1.1203 O   0  0  0  0  0  0  0  0  0  0  0  0
   11.4964    1.7124   -0.3225 C   0  0  1  0  0  0  0  0  0  0  0  0
   12.5615    1.1672   -1.2846 C   0  0  0  0  0  0  0  0  0  0  0  0
   11.1531    0.6853    0.6591 N   0  0  0  0  0  0  0  0  0  0  0  0
   10.1609   -0.3190    0.3892 C   0  0  0  0  0  0  0  0  0  0  0  0
    9.4253   -0.2148   -0.6319 O   0  0  0  0  0  0  0  0  0  0  0  0
    9.9666   -1.4861    1.3320 C   0  0  1  0  0  0  0  0  0  0  0  0
    8.9865   -1.1094    2.4421 C   0  0  0  0  0  0  0  0  0  0  0  0
    9.4602   -2.6512    0.5953 N   0  0  0  0  0  0  0  0  0  0  0  0
   10.1168   -3.9274    0.6242 C   0  0  0  0  0  0  0  0  0  0  0  0
   10.7586   -4.2819    1.6569 O   0  0  0  0  0  0  0  0  0  0  0  0
   10.0308   -4.8388   -0.5764 C   0  0  1  0  0  0  0  0  0  0  0  0
   10.9223   -4.2965   -1.6926 C   0  0  0  0  0  0  0  0  0  0  0  0
   10.4534   -6.2000   -0.2356 N   0  0  0  0  0  0  0  0  0  0  0  0
    9.8396   -7.3862   -0.7629 C   0  0  0  0  0  0  0  0  0  0  0  0
   10.5923   -8.3313   -1.1294 O   0  0  0  0  0  0  0  0  0  0  0  0
    8.3362   -7.5288   -0.9299 C   0  0  1  0  0  0  0  0  0  0  0  0
    7.9360   -9.0131   -0.8778 C   0  0  0  0  0  0  0  0  0  0  0  0
    7.6238   -6.8083    0.1358 N   0  0  0  0  0  0  0  0  0  0  0  0
    6.5505   -5.8890   -0.1125 C   0  0  0  0  0  0  0  0  0  0  0  0
    6.6667   -4.6987    0.2816 O   0  0  0  0  0  0  0  0  0  0  0  0
    5.2238   -6.3313   -0.6925 C   0  0  1  0  0  0  0  0  0  0  0  0
    5.3239   -6.7102   -2.1714 C   0  0  0  0  0  0  0  0  0  0  0  0
    4.6737   -7.4370    0.1033 N   0  0  0  0  0  0  0  0  0  0  0  0
    3.2970   -7.4863    0.4998 C   0  0  0  0  0  0  0  0  0  0  0  0
    3.0217   -7.6582    1.7158 O   0  0  0  0  0  0  0  0  0  0  0  0
   -3.5321    3.8642   -2.3511 C   0  0  0  0  0  0  0  0  0  0  0  0
   -2.9303    3.8827   -3.4648 O   0  0  0  0  0  0  0  0  0  0  0  0
   -4.9734    4.0079   -2.3699 N   0  0  0  0  0  0  0  0  0  0  0  0
   -5.8503    4.4626   -1.2793 C   0  0  2  0  0  0  0  0  0  0  0  0
   -5.3541    5.7916   -0.6716 C   0  0  0  0  0  0  0  0  0  0  0  0
   -6.0512    3.3819   -0.2402 C   0  0  0  0  0  0  0  0  0  0  0  0
   -5.6309    2.2183   -0.4578 O   0  0  0  0  0  0  0  0  0  0  0  0
   -6.6578    3.6758    1.0197 N   0  0  0  0  0  0  0  0  0  0  0  0
   -8.0331    4.1788    1.1300 C   0  0  2  0  0  0  0  0  0  0  0  0
   -8.0794    5.3426    2.1259 C   0  0  0  0  0  0  0  0  0  0  0  0
   -8.9569    3.0806    1.6188 C   0  0  0  0  0  0  0  0  0  0  0  0
   -8.4963    2.2006    2.3933 O   0  0  0  0  0  0  0  0  0  0  0  0
  -10.3736    3.1138    1.3665 N   0  0  0  0  0  0  0  0  0  0  0  0
  -10.9656    3.4279    0.0580 C   0  0  2  0  0  0  0  0  0  0  0  0
  -11.3105    4.9132   -0.0295 C   0  0  0  0  0  0  0  0  0  0  0  0
  -12.2246    2.6007   -0.1484 C   0  0  0  0  0  0  0  0  0  0  0  0
  -13.2185    2.8362    0.5834 O   0  0  0  0  0  0  0  0  0  0  0  0
  -12.3055    1.5086   -1.0823 N   0  0  0  0  0  0  0  0  0  0  0  0
  -11.1568    0.9313   -1.7886 C   0  0  2  0  0  0  0  0  0  0  0  0
  -11.5987   -0.1385   -2.7962 C   0  0  0  0  0  0  0  0  0  0  0  0
  -10.1097    0.3717   -0.8447 C   0  0  0  0  0  0  0  0  0  0  0  0
   -8.9151    0.3666   -1.2435 O   0  0  0  0  0  0  0  0  0  0  0  0
  -10.3766   -0.0777    0.5007 N   0  0  0  0  0  0  0  0  0  0  0  0
  -11.6341   -0.6162    1.0419 C   0  0  2  0  0  0  0  0  0  0  0  0
  -11.4779   -0.9370    2.5324 C   0  0  0  0  0  0  0  0  0  0  0  0
  -12.1276   -1.8428    0.3041 C   0  0  0  0  0  0  0  0  0  0  0  0
  -13.2767   -1.8048   -0.2127 O   0  0  0  0  0  0  0  0  0  0  0  0
  -11.4078   -3.0877    0.2737 N   0  0  0  0  0  0  0  0  0  0  0  0
   -9.9494   -3.1950    0.1450 C   0  0  2  0  0  0  0  0  0  0  0  0
   -9.5637   -3.2021   -1.3358 C   0  0  0  0  0  0  0  0  0  0  0  0
   -9.4469   -4.4059    0.8962 C   0  0  0  0  0  0  0  0  0  0  0  0
   -9.7419   -4.5296    2.1161 O   0  0  0  0  0  0  0  0  0  0  0  0
   -8.5448   -5.3355    0.2914 N   0  0  0  0  0  0  0  0  0  0  0  0
   -7.3358   -5.7807    0.9834 C   0  0  1  0  0  0  0  0  0  0  0  0
   -6.6925   -6.9200    0.2241 C   0  0  0  0  0  0  0  0  0  0  0  0
   -6.2530   -6.7507   -1.1282 N   0  0  0  0  0  0  0  0  0  0  0  0
   -6.5684   -8.0496    0.7774 O   0  0  0  0  0  0  0  0  0  0  0  0
   -6.3592   -4.6027    1.1568 C   0  0  0  0  0  0  0  0  0  0  0  0
   -5.0119   -5.0429    2.3115 S   0  0  0  0  0  0  0  0  0  0  0  0
   -4.2650   -3.3654    2.4529 C   0  0  0  0  0  0  0  0  0  0  0  0
    2.0595  -10.0872    0.8416 H   0  0  0  0  0  0  0  0  0  0  0  0
    3.7671  -10.2066    0.2383 H   0  0  0  0  0  0  0  0  0  0  0  0
    2.6118  -11.5635   -0.0163 H   0  0  0  0  0  0  0  0  0  0  0  0
    2.3560   -8.1454   -2.5487 H   0  0  0  0  0  0  0  0  0  0  0  0
    2.2926   -6.4122   -1.0410 H   0  0  0  0  0  0  0  0  0  0  0  0
    0.0318   -7.6154   -0.7409 H   0  0  0  0  0  0  0  0  0  0  0  0
    0.6686   -8.3107    0.7538 H   0  0  0  0  0  0  0  0  0  0  0  0
    0.3724   -4.6755   -1.0547 H   0  0  0  0  0  0  0  0  0  0  0  0
   -1.0998   -5.6984   -0.9359 H   0  0  0  0  0  0  0  0  0  0  0  0
   -2.4213   -5.1306    1.4364 H   0  0  0  0  0  0  0  0  0  0  0  0
   -3.5655   -0.9949    1.3281 H   0  0  0  0  0  0  0  0  0  0  0  0
   -0.2239   -2.3861   -1.0144 H   0  0  0  0  0  0  0  0  0  0  0  0
   -1.3382   -0.2210   -1.5232 H   0  0  0  0  0  0  0  0  0  0  0  0
   -0.6034    0.2025    0.0548 H   0  0  0  0  0  0  0  0  0  0  0  0
   -0.9468    2.6009   -0.4768 H   0  0  0  0  0  0  0  0  0  0  0  0
   -1.6048    2.1163   -2.0726 H   0  0  0  0  0  0  0  0  0  0  0  0
   -3.3215    3.8150   -0.1959 H   0  0  0  0  0  0  0  0  0  0  0  0
   -1.1000    4.9904   -1.9242 H   0  0  0  0  0  0  0  0  0  0  0  0
   -1.0311    7.4163   -1.4050 H   0  0  0  0  0  0  0  0  0  0  0  0
   -0.9876    9.2929    0.1964 H   0  0  0  0  0  0  0  0  0  0  0  0
   -2.6110    8.5054    0.1198 H   0  0  0  0  0  0  0  0  0  0  0  0
   -1.5177    8.2060    1.5305 H   0  0  0  0  0  0  0  0  0  0  0  0
    1.1442    7.7752   -0.4522 H   0  0  0  0  0  0  0  0  0  0  0  0
    1.7549    4.1263    0.1286 H   0  0  0  0  0  0  0  0  0  0  0  0
    3.4589    4.7941   -1.5359 H   0  0  0  0  0  0  0  0  0  0  0  0
    1.7865    5.3201   -1.9272 H   0  0  0  0  0  0  0  0  0  0  0  0
    2.9855    6.5185   -1.3630 H   0  0  0  0  0  0  0  0  0  0  0  0
    3.5675    4.0995    1.4601 H   0  0  0  0  0  0  0  0  0  0  0  0
    3.3920    7.6858    0.3667 H   0  0  0  0  0  0  0  0  0  0  0  0
    3.9915    8.4463    3.2678 H   0  0  0  0  0  0  0  0  0  0  0  0
    2.3593    7.9879    2.6396 H   0  0  0  0  0  0  0  0  0  0  0  0
    3.1848    9.4529    1.9981 H   0  0  0  0  0  0  0  0  0  0  0  0
    5.6211    9.0311    1.3311 H   0  0  0  0  0  0  0  0  0  0  0  0
    8.1713    7.7265   -0.8079 H   0  0  0  0  0  0  0  0  0  0  0  0
    7.8213    9.4975    0.9484 H   0  0  0  0  0  0  0  0  0  0  0  0
    7.8676    8.2114    2.2270 H   0  0  0  0  0  0  0  0  0  0  0  0
    9.3126    8.5784    1.2032 H   0  0  0  0  0  0  0  0  0  0  0  0
    7.5355    5.3107    0.5501 H   0  0  0  0  0  0  0  0  0  0  0  0
    9.4589    3.6623    0.1095 H   0  0  0  0  0  0  0  0  0  0  0  0
   10.2245    3.8548   -2.3032 H   0  0  0  0  0  0  0  0  0  0  0  0
    8.7736    4.8552   -1.9431 H   0  0  0  0  0  0  0  0  0  0  0  0
   10.4053    5.6309   -2.0811 H   0  0  0  0  0  0  0  0  0  0  0  0
   12.1743    5.0485   -0.0162 H   0  0  0  0  0  0  0  0  0  0  0  0
   10.6035    1.9587   -0.9255 H   0  0  0  0  0  0  0  0  0  0  0  0
   12.8320    1.9383   -2.0354 H   0  0  0  0  0  0  0  0  0  0  0  0
   12.1657    0.2793   -1.8269 H   0  0  0  0  0  0  0  0  0  0  0  0
   13.4739    0.8623   -0.7274 H   0  0  0  0  0  0  0  0  0  0  0  0
   11.6331    0.6739    1.5923 H   0  0  0  0  0  0  0  0  0  0  0  0
   10.9493   -1.7252    1.8016 H   0  0  0  0  0  0  0  0  0  0  0  0
    8.9212   -1.9425    3.1755 H   0  0  0  0  0  0  0  0  0  0  0  0
    7.9760   -0.9236    2.0180 H   0  0  0  0  0  0  0  0  0  0  0  0
    9.3312   -0.1991    2.9753 H   0  0  0  0  0  0  0  0  0  0  0  0
    8.6404   -2.5354   -0.0396 H   0  0  0  0  0  0  0  0  0  0  0  0
    8.9919   -4.8411   -0.9575 H   0  0  0  0  0  0  0  0  0  0  0  0
   10.6110   -3.2701   -1.9676 H   0  0  0  0  0  0  0  0  0  0  0  0
   10.8310   -4.9427   -2.5936 H   0  0  0  0  0  0  0  0  0  0  0  0
   11.9853   -4.2809   -1.3744 H   0  0  0  0  0  0  0  0  0  0  0  0
   11.4174   -6.3142    0.1577 H   0  0  0  0  0  0  0  0  0  0  0  0
    8.0598   -7.1179   -1.9197 H   0  0  0  0  0  0  0  0  0  0  0  0
    8.3004   -9.4825    0.0587 H   0  0  0  0  0  0  0  0  0  0  0  0
    6.8359   -9.1357   -0.9206 H   0  0  0  0  0  0  0  0  0  0  0  0
    8.3703   -9.5565   -1.7469 H   0  0  0  0  0  0  0  0  0  0  0  0
    8.0093   -6.8486    1.1064 H   0  0  0  0  0  0  0  0  0  0  0  0
    4.5304   -5.4634   -0.6304 H   0  0  0  0  0  0  0  0  0  0  0  0
    5.7496   -7.7229   -2.3176 H   0  0  0  0  0  0  0  0  0  0  0  0
    4.3127   -6.7116   -2.6306 H   0  0  0  0  0  0  0  0  0  0  0  0
    5.9387   -5.9651   -2.7241 H   0  0  0  0  0  0  0  0  0  0  0  0
    5.3301   -8.0415    0.6409 H   0  0  0  0  0  0  0  0  0  0  0  0
   -5.4238    3.9219   -3.3123 H   0  0  0  0  0  0  0  0  0  0  0  0
   -6.8518    4.6756   -1.7263 H   0  0  0  0  0  0  0  0  0  0  0  0
   -6.1772    6.2720   -0.1094 H   0  0  0  0  0  0  0  0  0  0  0  0
   -5.0372    6.4981   -1.4685 H   0  0  0  0  0  0  0  0  0  0  0  0
   -4.5199    5.6628    0.0316 H   0  0  0  0  0  0  0  0  0  0  0  0
   -6.1772    3.3462    1.8803 H   0  0  0  0  0  0  0  0  0  0  0  0
   -8.3783    4.5436    0.1358 H   0  0  0  0  0  0  0  0  0  0  0  0
   -9.1065    5.7539    2.1894 H   0  0  0  0  0  0  0  0  0  0  0  0
   -7.4082    6.1640    1.8122 H   0  0  0  0  0  0  0  0  0  0  0  0
   -7.7671    4.9996    3.1409 H   0  0  0  0  0  0  0  0  0  0  0  0
  -10.9875    2.6989    2.1085 H   0  0  0  0  0  0  0  0  0  0  0  0
  -10.2261    3.1979   -0.7306 H   0  0  0  0  0  0  0  0  0  0  0  0
  -12.0506    5.1919    0.7513 H   0  0  0  0  0  0  0  0  0  0  0  0
  -11.7268    5.1408   -1.0303 H   0  0  0  0  0  0  0  0  0  0  0  0
  -10.4077    5.5412    0.1134 H   0  0  0  0  0  0  0  0  0  0  0  0
  -13.2468    1.0782   -1.2360 H   0  0  0  0  0  0  0  0  0  0  0  0
  -10.6830    1.7416   -2.3959 H   0  0  0  0  0  0  0  0  0  0  0  0
  -10.7403   -0.4359   -3.4357 H   0  0  0  0  0  0  0  0  0  0  0  0
  -12.3955    0.2643   -3.4651 H   0  0  0  0  0  0  0  0  0  0  0  0
  -11.9844   -1.0377   -2.2937 H   0  0  0  0  0  0  0  0  0  0  0  0
   -9.5410   -0.0768    1.1300 H   0  0  0  0  0  0  0  0  0  0  0  0
  -12.4143    0.1694    0.9892 H   0  0  0  0  0  0  0  0  0  0  0  0
  -10.7327   -1.7434    2.6847 H   0  0  0  0  0  0  0  0  0  0  0  0
  -12.4493   -1.2632    2.9638 H   0  0  0  0  0  0  0  0  0  0  0  0
  -11.1399   -0.0355    3.0820 H   0  0  0  0  0  0  0  0  0  0  0  0
  -11.9578   -3.9460    0.0357 H   0  0  0  0  0  0  0  0  0  0  0  0
   -9.4536   -2.3323    0.6254 H   0  0  0  0  0  0  0  0  0  0  0  0
  -10.0477   -4.0569   -1.8612 H   0  0  0  0  0  0  0  0  0  0  0  0
   -9.8996   -2.2642   -1.8156 H   0  0  0  0  0  0  0  0  0  0  0  0
   -8.4597   -3.2708   -1.4496 H   0  0  0  0  0  0  0  0  0  0  0  0
   -8.7326   -5.6553   -0.6876 H   0  0  0  0  0  0  0  0  0  0  0  0
   -7.6260   -6.1537    1.9894 H   0  0  0  0  0  0  0  0  0  0  0  0
   -5.7917   -7.5341   -1.6320 H   0  0  0  0  0  0  0  0  0  0  0  0
   -6.3811   -5.8378   -1.6237 H   0  0  0  0  0  0  0  0  0  0  0  0
   -6.9116   -3.7409    1.5880 H   0  0  0  0  0  0  0  0  0  0  0  0
   -5.9306   -4.2807    0.1847 H   0  0  0  0  0  0  0  0  0  0  0  0
   -3.8093   -3.2938    3.4608 H   0  0  0  0  0  0  0  0  0  0  0  0
   -5.0483   -2.5838    2.3915 H   0  0  0  0  0  0  0  0  0  0  0  0
  1  2  1  0
  2  3  2  0
  2  4  1  0
  4  5  1  0
  5  6  1  0
  6  7  1  0
  7  8  1  0
  8  9  1  0
  9 10  2  0
 10 11  1  0
 11 12  2  0
 12 13  1  0
 13 14  2  0
 13 15  1  0
 15 16  1  0
 16 17  1  0
 17 18  1  0
 18 19  1  0
 19 20  1  0
 20 21  2  0
 20 22  1  0
 22 23  1  0
 22 24  1  0
 24 25  1  0
 25 26  2  0
 25 27  1  0
 27 28  1  0
 27 29  1  0
 29 30  1  0
 30 31  2  0
 30 32  1  0
 32 33  1  0
 32 34  1  0
 34 35  1  0
 35 36  2  0
 35 37  1  0
 37 38  1  0
 37 39  1  0
 39 40  1  0
 40 41  2  0
 40 42  1  0
 42 43  1  0
 42 44  1  0
 44 45  1  0
 45 46  2  0
 45 47  1  0
 47 48  1  0
 47 49  1  0
 49 50  1  0
 50 51  2  0
 50 52  1  0
 52 53  1  0
 52 54  1  0
 54 55  1  0
 55 56  2  0
 55 57  1  0
 57 58  1  0
 57 59  1  0
 59 60  1  0
 60 61  2  0
 60 62  1  0
 62 63  1  0
 62 64  1  0
 64 65  1  0
 65 66  2  0
 65 67  1  0
 67 68  1  0
 67 69  1  0
 69 70  1  0
 70 71  2  0
 18 72  1  0
 72 73  2  0
 72 74  1  0
 74 75  1  0
 75 76  1  0
 75 77  1  0
 77 78  2  0
 77 79  1  0
 79 80  1  0
 80 81  1  0
 80 82  1  0
 82 83  2  0
 82 84  1  0
 84 85  1  0
 85 86  1  0
 85 87  1  0
 87 88  2  0
 87 89  1  0
 89 90  1  0
 90 91  1  0
 90 92  1  0
 92 93  2  0
 92 94  1  0
 94 95  1  0
 95 96  1  0
 95 97  1  0
 97 98  2  0
 97 99  1  0
 99100  1  0
100101  1  0
100102  1  0
102103  2  0
102104  1  0
104105  1  0
105106  1  0
106107  1  0
106108  2  0
105109  1  0
109110  1  0
110111  1  0
 70  5  1  0
 14  9  1  0
111 11  1  0
  1112  1  0
  1113  1  0
  1114  1  0
  4115  1  0
  5116  1  6
  6117  1  0
  6118  1  0
  8119  1  0
  8120  1  0
 10121  1  0
 12122  1  0
 14123  1  0
 15124  1  0
 15125  1  0
 17126  1  0
 17127  1  0
 18128  1  1
 19129  1  0
 22130  1  6
 23131  1  0
 23132  1  0
 23133  1  0
 24134  1  0
 27135  1  6
 28136  1  0
 28137  1  0
 28138  1  0
 29139  1  0
 32140  1  6
 33141  1  0
 33142  1  0
 33143  1  0
 34144  1  0
 37145  1  6
 38146  1  0
 38147  1  0
 38148  1  0
 39149  1  0
 42150  1  1
 43151  1  0
 43152  1  0
 43153  1  0
 44154  1  0
 47155  1  6
 48156  1  0
 48157  1  0
 48158  1  0
 49159  1  0
 52160  1  1
 53161  1  0
 53162  1  0
 53163  1  0
 54164  1  0
 57165  1  6
 58166  1  0
 58167  1  0
 58168  1  0
 59169  1  0
 62170  1  6
 63171  1  0
 63172  1  0
 63173  1  0
 64174  1  0
 67175  1  6
 68176  1  0
 68177  1  0
 68178  1  0
 69179  1  0
 74180  1  0
 75181  1  6
 76182  1  0
 76183  1  0
 76184  1  0
 79185  1  0
 80186  1  6
 81187  1  0
 81188  1  0
 81189  1  0
 84190  1  0
 85191  1  6
 86192  1  0
 86193  1  0
 86194  1  0
 89195  1  0
 90196  1  6
 91197  1  0
 91198  1  0
 91199  1  0
 94200  1  0
 95201  1  1
 96202  1  0
 96203  1  0
 96204  1  0
 99205  1  0
100206  1  1
101207  1  0
101208  1  0
101209  1  0
104210  1  0
105211  1  1
107212  1  0
107213  1  0
109214  1  0
109215  1  0
111216  1  0
111217  1  0
M  END
