
     RDKit          3D

197199  0  0  0  0  0  0  0  0999 V2000
   -1.3396   10.7528   -0.6136 C   0  0  0  0  0  0  0  0  0  0  0  0
   -1.3223    9.2616   -0.7097 C   0  0  0  0  0  0  0  0  0  0  0  0
   -2.3823    8.6108   -0.5030 O   0  0  0  0  0  0  0  0  0  0  0  0
   -0.0997    8.5861   -1.0427 N   0  0  0  0  0  0  0  0  0  0  0  0
    0.0207    7.1231   -1.1038 C   0  0  2  0  0  0  0  0  0  0  0  0
   -0.0348    6.5234    0.3300 C   0  0  0  0  0  0  0  0  0  0  0  0
   -1.6767    5.7619    0.6504 S   0  0  0  0  0  0  0  0  0  0  0  0
   -1.0889    4.0482    0.8576 C   0  0  0  0  0  0  0  0  0  0  0  0
   -2.2344    3.0809    0.7320 C   0  0  0  0  0  0  0  0  0  0  0  0
   -2.2349    2.1123   -0.2833 C   0  0  0  0  0  0  0  0  0  0  0  0
   -3.2768    1.1817   -0.3835 C   0  0  0  0  0  0  0  0  0  0  0  0
   -4.3501    1.2427    0.5214 C   0  0  0  0  0  0  0  0  0  0  0  0
   -4.3751    2.2174    1.5320 C   0  0  0  0  0  0  0  0  0  0  0  0
   -3.2958    3.1124    1.6505 C   0  0  0  0  0  0  0  0  0  0  0  0
   -5.5064    2.2432    2.5305 C   0  0  0  0  0  0  0  0  0  0  0  0
   -6.1623    3.9366    2.7741 S   0  0  0  0  0  0  0  0  0  0  0  0
   -7.0544    4.0694    1.1773 C   0  0  0  0  0  0  0  0  0  0  0  0
   -8.5479    3.7300    1.3257 C   0  0  1  0  0  0  0  0  0  0  0  0
   -9.2118    4.6174    2.3498 C   0  0  0  0  0  0  0  0  0  0  0  0
   -9.3411    6.0252    2.1366 N   0  0  0  0  0  0  0  0  0  0  0  0
   -9.6573    4.1103    3.4123 O   0  0  0  0  0  0  0  0  0  0  0  0
   -9.2137    3.8946    0.0271 N   0  0  0  0  0  0  0  0  0  0  0  0
   -9.7889    2.8139   -0.7226 C   0  0  0  0  0  0  0  0  0  0  0  0
   -9.5360    2.7404   -1.9552 O   0  0  0  0  0  0  0  0  0  0  0  0
  -10.7022    1.7808   -0.0866 C   0  0  1  0  0  0  0  0  0  0  0  0
  -11.7161    2.4465    0.8535 C   0  0  0  0  0  0  0  0  0  0  0  0
  -11.4414    1.0486   -1.1263 N   0  0  0  0  0  0  0  0  0  0  0  0
  -12.0159   -0.2594   -0.9604 C   0  0  0  0  0  0  0  0  0  0  0  0
  -13.0985   -0.5167   -1.5562 O   0  0  0  0  0  0  0  0  0  0  0  0
  -11.3766   -1.3394   -0.1157 C   0  0  1  0  0  0  0  0  0  0  0  0
  -12.2141   -1.5607    1.1525 C   0  0  0  0  0  0  0  0  0  0  0  0
  -11.2907   -2.5946   -0.8789 N   0  0  0  0  0  0  0  0  0  0  0  0
  -10.4161   -3.6965   -0.5711 C   0  0  0  0  0  0  0  0  0  0  0  0
  -10.4530   -4.7159   -1.3144 O   0  0  0  0  0  0  0  0  0  0  0  0
   -9.4018   -3.6609    0.5484 C   0  0  1  0  0  0  0  0  0  0  0  0
   -9.5054   -4.9468    1.3842 C   0  0  0  0  0  0  0  0  0  0  0  0
   -8.0692   -3.4373   -0.0380 N   0  0  0  0  0  0  0  0  0  0  0  0
   -6.9209   -4.2763    0.1558 C   0  0  0  0  0  0  0  0  0  0  0  0
   -6.6243   -4.6920    1.3096 O   0  0  0  0  0  0  0  0  0  0  0  0
   -6.0092   -4.5910   -0.9964 C   0  0  1  0  0  0  0  0  0  0  0  0
   -6.8102   -5.0837   -2.2060 C   0  0  0  0  0  0  0  0  0  0  0  0
   -5.2397   -3.4021   -1.3560 N   0  0  0  0  0  0  0  0  0  0  0  0
   -3.8284   -3.4664   -1.5910 C   0  0  0  0  0  0  0  0  0  0  0  0
   -3.4015   -3.3768   -2.7731 O   0  0  0  0  0  0  0  0  0  0  0  0
   -2.8422   -3.4943   -0.4508 C   0  0  1  0  0  0  0  0  0  0  0  0
   -2.6334   -2.0836    0.1185 C   0  0  0  0  0  0  0  0  0  0  0  0
   -1.7996   -1.0058   -1.1095 S   0  0  0  0  0  0  0  0  0  0  0  0
   -3.2155    0.1079   -1.4339 C   0  0  0  0  0  0  0  0  0  0  0  0
   -3.2998   -4.3915    0.6170 N   0  0  0  0  0  0  0  0  0  0  0  0
   -2.9796   -5.7903    0.7381 C   0  0  0  0  0  0  0  0  0  0  0  0
   -3.6103   -6.4750    1.5884 O   0  0  0  0  0  0  0  0  0  0  0  0
   -1.9203   -6.4926   -0.0911 C   0  0  1  0  0  0  0  0  0  0  0  0
   -2.3228   -6.6065   -1.5673 C   0  0  0  0  0  0  0  0  0  0  0  0
   -0.6071   -5.8594    0.0782 N   0  0  0  0  0  0  0  0  0  0  0  0
    0.5883   -6.4947   -0.3866 C   0  0  0  0  0  0  0  0  0  0  0  0
    0.7805   -6.6260   -1.6278 O   0  0  0  0  0  0  0  0  0  0  0  0
    1.6513   -6.9625    0.5847 C   0  0  1  0  0  0  0  0  0  0  0  0
    1.0638   -7.2200    1.9789 C   0  0  0  0  0  0  0  0  0  0  0  0
    2.2631   -8.2015    0.0839 N   0  0  0  0  0  0  0  0  0  0  0  0
    3.5666   -8.6753    0.4683 C   0  0  0  0  0  0  0  0  0  0  0  0
    3.7748   -9.9197    0.4701 O   0  0  0  0  0  0  0  0  0  0  0  0
    4.7001   -7.7396    0.8495 C   0  0  1  0  0  0  0  0  0  0  0  0
    4.6206   -7.3472    2.3280 C   0  0  0  0  0  0  0  0  0  0  0  0
    5.9920   -8.3933    0.6097 N   0  0  0  0  0  0  0  0  0  0  0  0
    7.1317   -7.7515    0.0125 C   0  0  0  0  0  0  0  0  0  0  0  0
    8.2692   -7.9625    0.5159 O   0  0  0  0  0  0  0  0  0  0  0  0
    7.0525   -6.9154   -1.2459 C   0  0  1  0  0  0  0  0  0  0  0  0
    6.1362   -7.5505   -2.2963 C   0  0  0  0  0  0  0  0  0  0  0  0
    6.6399   -5.5410   -0.9525 N   0  0  0  0  0  0  0  0  0  0  0  0
    7.5543   -4.4324   -0.9478 C   0  0  0  0  0  0  0  0  0  0  0  0
    7.1640   -3.3261   -1.4077 O   0  0  0  0  0  0  0  0  0  0  0  0
    8.9563   -4.5523   -0.3893 C   0  0  1  0  0  0  0  0  0  0  0  0
   10.0147   -4.3805   -1.4799 C   0  0  0  0  0  0  0  0  0  0  0  0
    9.1706   -3.6099    0.7199 N   0  0  0  0  0  0  0  0  0  0  0  0
    8.8976   -2.2065    0.6373 C   0  0  0  0  0  0  0  0  0  0  0  0
    7.8536   -1.7544    1.1796 O   0  0  0  0  0  0  0  0  0  0  0  0
    9.8819   -1.2537    0.0141 C   0  0  1  0  0  0  0  0  0  0  0  0
    9.2561   -0.5708   -1.2098 C   0  0  0  0  0  0  0  0  0  0  0  0
   10.3419   -0.3044    1.0438 N   0  0  0  0  0  0  0  0  0  0  0  0
   10.6688    1.0754    0.8124 C   0  0  0  0  0  0  0  0  0  0  0  0
   11.8834    1.4161    0.8180 O   0  0  0  0  0  0  0  0  0  0  0  0
    9.5877    2.1220    0.6146 C   0  0  1  0  0  0  0  0  0  0  0  0
    8.3904    1.8607    1.5470 C   0  0  0  0  0  0  0  0  0  0  0  0
   10.1480    3.4752    0.7651 N   0  0  0  0  0  0  0  0  0  0  0  0
    9.5161    4.5665    1.4604 C   0  0  0  0  0  0  0  0  0  0  0  0
    9.1141    4.4169    2.6464 O   0  0  0  0  0  0  0  0  0  0  0  0
    9.3910    5.9170    0.8092 C   0  0  1  0  0  0  0  0  0  0  0  0
   10.6605    6.7379    1.0421 C   0  0  0  0  0  0  0  0  0  0  0  0
    9.1504    5.7665   -0.6278 N   0  0  0  0  0  0  0  0  0  0  0  0
    7.8280    5.6088   -1.1541 C   0  0  0  0  0  0  0  0  0  0  0  0
    7.5098    4.5053   -1.6724 O   0  0  0  0  0  0  0  0  0  0  0  0
    6.8108    6.7273   -1.0994 C   0  0  1  0  0  0  0  0  0  0  0  0
    7.4820    8.1053   -1.0917 C   0  0  0  0  0  0  0  0  0  0  0  0
    5.9404    6.6469   -2.2780 N   0  0  0  0  0  0  0  0  0  0  0  0
    4.5033    6.7239   -2.2825 C   0  0  0  0  0  0  0  0  0  0  0  0
    3.9357    6.9894   -3.3766 O   0  0  0  0  0  0  0  0  0  0  0  0
    3.6632    6.5381   -1.0355 C   0  0  1  0  0  0  0  0  0  0  0  0
    3.5377    7.8492   -0.2461 C   0  0  0  0  0  0  0  0  0  0  0  0
    2.3370    5.9889   -1.3487 N   0  0  0  0  0  0  0  0  0  0  0  0
    1.2571    6.7591   -1.9014 C   0  0  0  0  0  0  0  0  0  0  0  0
    1.3173    7.1404   -3.1000 O   0  0  0  0  0  0  0  0  0  0  0  0
   -0.5948   11.0842    0.1411 H   0  0  0  0  0  0  0  0  0  0  0  0
   -2.3448   11.1168   -0.3100 H   0  0  0  0  0  0  0  0  0  0  0  0
   -1.0791   11.1902   -1.5991 H   0  0  0  0  0  0  0  0  0  0  0  0
    0.7209    9.1826   -1.3080 H   0  0  0  0  0  0  0  0  0  0  0  0
   -0.8338    6.7287   -1.6944 H   0  0  0  0  0  0  0  0  0  0  0  0
    0.7733    5.7923    0.5229 H   0  0  0  0  0  0  0  0  0  0  0  0
    0.1141    7.3219    1.0851 H   0  0  0  0  0  0  0  0  0  0  0  0
   -0.6235    3.9418    1.8596 H   0  0  0  0  0  0  0  0  0  0  0  0
   -0.3205    3.8246    0.0896 H   0  0  0  0  0  0  0  0  0  0  0  0
   -1.4152    2.0679   -0.9875 H   0  0  0  0  0  0  0  0  0  0  0  0
   -5.1580    0.5239    0.4470 H   0  0  0  0  0  0  0  0  0  0  0  0
   -3.2864    3.8409    2.4530 H   0  0  0  0  0  0  0  0  0  0  0  0
   -6.3347    1.5695    2.2270 H   0  0  0  0  0  0  0  0  0  0  0  0
   -5.1186    1.8781    3.5047 H   0  0  0  0  0  0  0  0  0  0  0  0
   -6.6001    3.4102    0.4077 H   0  0  0  0  0  0  0  0  0  0  0  0
   -6.9439    5.1130    0.8118 H   0  0  0  0  0  0  0  0  0  0  0  0
   -8.6257    2.6696    1.6561 H   0  0  0  0  0  0  0  0  0  0  0  0
   -8.9594    6.4832    1.2817 H   0  0  0  0  0  0  0  0  0  0  0  0
   -9.9223    6.5903    2.7926 H   0  0  0  0  0  0  0  0  0  0  0  0
   -9.0757    4.7991   -0.4770 H   0  0  0  0  0  0  0  0  0  0  0  0
  -10.0703    1.0904    0.5040 H   0  0  0  0  0  0  0  0  0  0  0  0
  -12.4896    1.7178    1.1711 H   0  0  0  0  0  0  0  0  0  0  0  0
  -11.2142    2.8107    1.7692 H   0  0  0  0  0  0  0  0  0  0  0  0
  -12.2227    3.2974    0.3479 H   0  0  0  0  0  0  0  0  0  0  0  0
  -11.8568    1.6246   -1.8952 H   0  0  0  0  0  0  0  0  0  0  0  0
  -10.3520   -1.0214    0.1540 H   0  0  0  0  0  0  0  0  0  0  0  0
  -11.7133   -2.2658    1.8440 H   0  0  0  0  0  0  0  0  0  0  0  0
  -12.3548   -0.6012    1.6919 H   0  0  0  0  0  0  0  0  0  0  0  0
  -13.2093   -1.9767    0.8902 H   0  0  0  0  0  0  0  0  0  0  0  0
  -11.9020   -2.7177   -1.7201 H   0  0  0  0  0  0  0  0  0  0  0  0
   -9.6033   -2.8201    1.2410 H   0  0  0  0  0  0  0  0  0  0  0  0
   -9.1681   -5.8285    0.7982 H   0  0  0  0  0  0  0  0  0  0  0  0
   -8.9027   -4.8551    2.3091 H   0  0  0  0  0  0  0  0  0  0  0  0
  -10.5595   -5.1104    1.6945 H   0  0  0  0  0  0  0  0  0  0  0  0
   -7.9882   -2.6732   -0.7469 H   0  0  0  0  0  0  0  0  0  0  0  0
   -5.3316   -5.4203   -0.7021 H   0  0  0  0  0  0  0  0  0  0  0  0
   -7.4458   -5.9487   -1.9195 H   0  0  0  0  0  0  0  0  0  0  0  0
   -7.4569   -4.2768   -2.6078 H   0  0  0  0  0  0  0  0  0  0  0  0
   -6.1125   -5.4103   -3.0063 H   0  0  0  0  0  0  0  0  0  0  0  0
   -5.7485   -2.5840   -1.7611 H   0  0  0  0  0  0  0  0  0  0  0  0
   -1.8586   -3.8328   -0.8285 H   0  0  0  0  0  0  0  0  0  0  0  0
   -1.9695   -2.1469    1.0089 H   0  0  0  0  0  0  0  0  0  0  0  0
   -3.5991   -1.6552    0.4636 H   0  0  0  0  0  0  0  0  0  0  0  0
   -4.1628   -0.4681   -1.4912 H   0  0  0  0  0  0  0  0  0  0  0  0
   -3.0648    0.5847   -2.4246 H   0  0  0  0  0  0  0  0  0  0  0  0
   -4.0225   -4.0162    1.2742 H   0  0  0  0  0  0  0  0  0  0  0  0
   -1.8412   -7.5336    0.2923 H   0  0  0  0  0  0  0  0  0  0  0  0
   -3.3958   -6.8782   -1.6575 H   0  0  0  0  0  0  0  0  0  0  0  0
   -1.7316   -7.4075   -2.0576 H   0  0  0  0  0  0  0  0  0  0  0  0
   -2.1363   -5.6698   -2.1228 H   0  0  0  0  0  0  0  0  0  0  0  0
   -0.5013   -5.0979    0.7897 H   0  0  0  0  0  0  0  0  0  0  0  0
    2.4135   -6.1624    0.6470 H   0  0  0  0  0  0  0  0  0  0  0  0
    1.7911   -7.7558    2.6220 H   0  0  0  0  0  0  0  0  0  0  0  0
    0.1496   -7.8480    1.9137 H   0  0  0  0  0  0  0  0  0  0  0  0
    0.8127   -6.2576    2.4717 H   0  0  0  0  0  0  0  0  0  0  0  0
    1.6166   -8.9149   -0.3211 H   0  0  0  0  0  0  0  0  0  0  0  0
    4.6221   -6.8191    0.2449 H   0  0  0  0  0  0  0  0  0  0  0  0
    4.4347   -8.2417    2.9647 H   0  0  0  0  0  0  0  0  0  0  0  0
    5.5809   -6.8820    2.6485 H   0  0  0  0  0  0  0  0  0  0  0  0
    3.8258   -6.5950    2.4951 H   0  0  0  0  0  0  0  0  0  0  0  0
    6.1931   -9.2586    1.1614 H   0  0  0  0  0  0  0  0  0  0  0  0
    8.0653   -6.8966   -1.7097 H   0  0  0  0  0  0  0  0  0  0  0  0
    5.0816   -7.5740   -1.9579 H   0  0  0  0  0  0  0  0  0  0  0  0
    6.1840   -6.9633   -3.2394 H   0  0  0  0  0  0  0  0  0  0  0  0
    6.4658   -8.5880   -2.5156 H   0  0  0  0  0  0  0  0  0  0  0  0
    5.6252   -5.2980   -1.0223 H   0  0  0  0  0  0  0  0  0  0  0  0
    9.0906   -5.5758    0.0198 H   0  0  0  0  0  0  0  0  0  0  0  0
    9.9331   -5.2053   -2.2204 H   0  0  0  0  0  0  0  0  0  0  0  0
   11.0312   -4.4077   -1.0296 H   0  0  0  0  0  0  0  0  0  0  0  0
    9.8869   -3.4217   -2.0176 H   0  0  0  0  0  0  0  0  0  0  0  0
    9.2518   -4.0173    1.6785 H   0  0  0  0  0  0  0  0  0  0  0  0
   10.7678   -1.8293   -0.3360 H   0  0  0  0  0  0  0  0  0  0  0  0
    8.9691   -1.3241   -1.9716 H   0  0  0  0  0  0  0  0  0  0  0  0
    8.3367   -0.0182   -0.9297 H   0  0  0  0  0  0  0  0  0  0  0  0
    9.9854    0.1178   -1.6822 H   0  0  0  0  0  0  0  0  0  0  0  0
   10.7786   -0.7353    1.8899 H   0  0  0  0  0  0  0  0  0  0  0  0
    9.2238    2.0491   -0.4303 H   0  0  0  0  0  0  0  0  0  0  0  0
    7.6076    2.6357    1.4025 H   0  0  0  0  0  0  0  0  0  0  0  0
    8.7198    1.8463    2.6072 H   0  0  0  0  0  0  0  0  0  0  0  0
    7.9227    0.8838    1.3095 H   0  0  0  0  0  0  0  0  0  0  0  0
   10.9299    3.7289    0.1155 H   0  0  0  0  0  0  0  0  0  0  0  0
    8.5369    6.4565    1.2773 H   0  0  0  0  0  0  0  0  0  0  0  0
   11.5428    6.2199    0.6156 H   0  0  0  0  0  0  0  0  0  0  0  0
   10.5593    7.7312    0.5601 H   0  0  0  0  0  0  0  0  0  0  0  0
   10.8223    6.8921    2.1295 H   0  0  0  0  0  0  0  0  0  0  0  0
    9.9364    5.4220   -1.2262 H   0  0  0  0  0  0  0  0  0  0  0  0
    6.2360    6.6134   -0.1600 H   0  0  0  0  0  0  0  0  0  0  0  0
    6.7115    8.9028   -1.1608 H   0  0  0  0  0  0  0  0  0  0  0  0
    8.0524    8.2677   -0.1557 H   0  0  0  0  0  0  0  0  0  0  0  0
    8.1729    8.2087   -1.9584 H   0  0  0  0  0  0  0  0  0  0  0  0
    6.4121    6.6665   -3.2125 H   0  0  0  0  0  0  0  0  0  0  0  0
    4.1763    5.7956   -0.3878 H   0  0  0  0  0  0  0  0  0  0  0  0
    4.5313    8.2050    0.0922 H   0  0  0  0  0  0  0  0  0  0  0  0
    2.9045    7.6851    0.6506 H   0  0  0  0  0  0  0  0  0  0  0  0
    3.0819    8.6415   -0.8738 H   0  0  0  0  0  0  0  0  0  0  0  0
    2.1627    4.9730   -1.1589 H   0  0  0  0  0  0  0  0  0  0  0  0
  1  2  1  0
  2  3  2  0
  2  4  1  0
  4  5  1  0
  5  6  1  0
  6  7  1  0
  7  8  1  0
  8  9  1  0
  9 10  2  0
 10 11  1  0
 11 12  2  0
 12 13  1  0
 13 14  2  0
 13 15  1  0
 15 16  1  0
 16 17  1  0
 17 18  1  0
 18 19  1  0
 19 20  1  0
 19 21  2  0
 18 22  1  0
 22 23  1  0
 23 24  2  0
 23 25  1  0
 25 26  1  0
 25 27  1  0
 27 28  1  0
 28 29  2  0
 28 30  1  0
 30 31  1  0
 30 32  1  0
 32 33  1  0
 33 34  2  0
 33 35  1  0
 35 36  1  0
 35 37  1  0
 37 38  1  0
 38 39  2  0
 38 40  1  0
 40 41  1  0
 40 42  1  0
 42 43  1  0
 43 44  2  0
 43 45  1  0
 45 46  1  0
 46 47  1  0
 47 48  1  0
 45 49  1  0
 49 50  1  0
 50 51  2  0
 50 52  1  0
 52 53  1  0
 52 54  1  0
 54 55  1  0
 55 56  2  0
 55 57  1  0
 57 58  1  0
 57 59  1  0
 59 60  1  0
 60 61  2  0
 60 62  1  0
 62 63  1  0
 62 64  1  0
 64 65  1  0
 65 66  2  0
 65 67  1  0
 67 68  1  0
 67 69  1  0
 69 70  1  0
 70 71  2  0
 70 72  1  0
 72 73  1  0
 72 74  1  0
 74 75  1  0
 75 76  2  0
 75 77  1  0
 77 78  1  0
 77 79  1  0
 79 80  1  0
 80 81  2  0
 80 82  1  0
 82 83  1  0
 82 84  1  0
 84 85  1  0
 85 86  2  0
 85 87  1  0
 87 88  1  0
 87 89  1  0
 89 90  1  0
 90 91  2  0
 90 92  1  0
 92 93  1  0
 92 94  1  0
 94 95  1  0
 95 96  2  0
 95 97  1  0
 97 98  1  0
 97 99  1  0
 99100  1  0
100101  2  0
100  5  1  0
 14  9  1  0
 48 11  1  0
  1102  1  0
  1103  1  0
  1104  1  0
  4105  1  0
  5106  1  6
  6107  1  0
  6108  1  0
  8109  1  0
  8110  1  0
 10111  1  0
 12112  1  0
 14113  1  0
 15114  1  0
 15115  1  0
 17116  1  0
 17117  1  0
 18118  1  1
 20119  1  0
 20120  1  0
 22121  1  0
 25122  1  1
 26123  1  0
 26124  1  0
 26125  1  0
 27126  1  0
 30127  1  1
 31128  1  0
 31129  1  0
 31130  1  0
 32131  1  0
 35132  1  1
 36133  1  0
 36134  1  0
 36135  1  0
 37136  1  0
 40137  1  1
 41138  1  0
 41139  1  0
 41140  1  0
 42141  1  0
 45142  1  6
 46143  1  0
 46144  1  0
 48145  1  0
 48146  1  0
 49147  1  0
 52148  1  1
 53149  1  0
 53150  1  0
 53151  1  0
 54152  1  0
 57153  1  1
 58154  1  0
 58155  1  0
 58156  1  0
 59157  1  0
 62158  1  6
 63159  1  0
 63160  1  0
 63161  1  0
 64162  1  0
 67163  1  6
 68164  1  0
 68165  1  0
 68166  1  0
 69167  1  0
 72168  1  1
 73169  1  0
 73170  1  0
 73171  1  0
 74172  1  0
 77173  1  6
 78174  1  0
 78175  1  0
 78176  1  0
 79177  1  0
 82178  1  6
 83179  1  0
 83180  1  0
 83181  1  0
 84182  1  0
 87183  1  1
 88184  1  0
 88185  1  0
 88186  1  0
 89187  1  0
 92188  1  1
 93189  1  0
 93190  1  0
 93191  1  0
 94192  1  0
 97193  1  1
 98194  1  0
 98195  1  0
 98196  1  0
 99197  1  0
M  END
