
     RDKit          3D

207209  0  0  0  0  0  0  0  0999 V2000
   -0.3624    9.6709   -3.2797 C   0  0  0  0  0  0  0  0  0  0  0  0
    0.0186    8.2363   -3.4504 C   0  0  0  0  0  0  0  0  0  0  0  0
    0.5009    7.8551   -4.5580 O   0  0  0  0  0  0  0  0  0  0  0  0
   -0.1904    7.2632   -2.4153 N   0  0  0  0  0  0  0  0  0  0  0  0
   -0.8366    7.5605   -1.1262 C   0  0  2  0  0  0  0  0  0  0  0  0
   -0.2068    6.7030   -0.0088 C   0  0  0  0  0  0  0  0  0  0  0  0
   -0.6708    4.9409   -0.1030 S   0  0  0  0  0  0  0  0  0  0  0  0
    0.4405    4.4116    1.2491 C   0  0  0  0  0  0  0  0  0  0  0  0
    1.7056    3.8254    0.6866 C   0  0  0  0  0  0  0  0  0  0  0  0
    1.7220    2.5121    0.1956 C   0  0  0  0  0  0  0  0  0  0  0  0
    2.9182    1.9277   -0.2521 C   0  0  0  0  0  0  0  0  0  0  0  0
    4.0880    2.6979   -0.2833 C   0  0  0  0  0  0  0  0  0  0  0  0
    4.0838    4.0157    0.1884 C   0  0  0  0  0  0  0  0  0  0  0  0
    2.8946    4.5712    0.6838 C   0  0  0  0  0  0  0  0  0  0  0  0
    5.3171    4.8651    0.0556 C   0  0  0  0  0  0  0  0  0  0  0  0
    6.6842    4.1407    1.0348 S   0  0  0  0  0  0  0  0  0  0  0  0
    7.9510    5.4045    0.6245 C   0  0  0  0  0  0  0  0  0  0  0  0
    8.4534    5.3590   -0.8390 C   0  0  1  0  0  0  0  0  0  0  0  0
    9.5193    6.3870   -1.1246 C   0  0  0  0  0  0  0  0  0  0  0  0
   10.0849    6.4700   -2.4412 N   0  0  0  0  0  0  0  0  0  0  0  0
    9.8798    7.2198   -0.2458 O   0  0  0  0  0  0  0  0  0  0  0  0
    8.9068    4.0318   -1.3029 N   0  0  0  0  0  0  0  0  0  0  0  0
    9.1900    2.8949   -0.4716 C   0  0  0  0  0  0  0  0  0  0  0  0
    8.4277    1.9002   -0.5444 O   0  0  0  0  0  0  0  0  0  0  0  0
   10.4529    2.7688    0.3374 C   0  0  1  0  0  0  0  0  0  0  0  0
   11.3853    3.9751    0.2352 C   0  0  0  0  0  0  0  0  0  0  0  0
   10.1113    2.5251    1.7432 N   0  0  0  0  0  0  0  0  0  0  0  0
   10.3241    1.2956    2.4703 C   0  0  0  0  0  0  0  0  0  0  0  0
    9.9196    1.2357    3.6679 O   0  0  0  0  0  0  0  0  0  0  0  0
   11.0396    0.0931    1.8641 C   0  0  1  0  0  0  0  0  0  0  0  0
   12.5468    0.3630    1.7712 C   0  0  0  0  0  0  0  0  0  0  0  0
   10.8343   -1.0879    2.7132 N   0  0  0  0  0  0  0  0  0  0  0  0
   10.2586   -2.3491    2.3189 C   0  0  0  0  0  0  0  0  0  0  0  0
   10.0807   -3.2125    3.2220 O   0  0  0  0  0  0  0  0  0  0  0  0
    9.9075   -2.7011    0.8834 C   0  0  1  0  0  0  0  0  0  0  0  0
   11.1731   -2.8739    0.0449 C   0  0  0  0  0  0  0  0  0  0  0  0
    9.1619   -3.9690    0.8603 N   0  0  0  0  0  0  0  0  0  0  0  0
    8.1134   -4.2890   -0.0646 C   0  0  0  0  0  0  0  0  0  0  0  0
    8.1929   -5.3757   -0.6957 O   0  0  0  0  0  0  0  0  0  0  0  0
    6.8779   -3.4382   -0.2552 C   0  0  1  0  0  0  0  0  0  0  0  0
    6.4906   -2.6540    1.0070 C   0  0  0  0  0  0  0  0  0  0  0  0
    7.0441   -2.5361   -1.3945 N   0  0  0  0  0  0  0  0  0  0  0  0
    6.0446   -2.3699   -2.4235 C   0  0  0  0  0  0  0  0  0  0  0  0
    5.6737   -1.2053   -2.7240 O   0  0  0  0  0  0  0  0  0  0  0  0
    5.4687   -3.5366   -3.2021 C   0  0  1  0  0  0  0  0  0  0  0  0
    6.5358   -4.5527   -3.6044 C   0  0  0  0  0  0  0  0  0  0  0  0
    4.3900   -4.1826   -2.4511 N   0  0  0  0  0  0  0  0  0  0  0  0
    3.0671   -3.6431   -2.4586 C   0  0  0  0  0  0  0  0  0  0  0  0
    2.3732   -3.7001   -3.5122 O   0  0  0  0  0  0  0  0  0  0  0  0
    2.4870   -3.0889   -1.1833 C   0  0  1  0  0  0  0  0  0  0  0  0
    1.6661   -1.8116   -1.4707 C   0  0  0  0  0  0  0  0  0  0  0  0
    1.7592   -0.6203   -0.0789 S   0  0  0  0  0  0  0  0  0  0  0  0
    2.9347    0.5477   -0.8737 C   0  0  0  0  0  0  0  0  0  0  0  0
    1.6657   -4.1158   -0.5382 N   0  0  0  0  0  0  0  0  0  0  0  0
    2.2650   -5.2695    0.0779 C   0  0  0  0  0  0  0  0  0  0  0  0
    3.2887   -5.1124    0.8008 O   0  0  0  0  0  0  0  0  0  0  0  0
    1.7148   -6.6473   -0.2060 C   0  0  1  0  0  0  0  0  0  0  0  0
    2.6665   -7.7557    0.2758 C   0  0  0  0  0  0  0  0  0  0  0  0
    0.3770   -6.8348    0.3835 N   0  0  0  0  0  0  0  0  0  0  0  0
   -0.2992   -8.0855    0.2550 C   0  0  0  0  0  0  0  0  0  0  0  0
   -0.4489   -8.5919   -0.8889 O   0  0  0  0  0  0  0  0  0  0  0  0
   -0.7087   -8.8650    1.4808 C   0  0  1  0  0  0  0  0  0  0  0  0
   -0.9722   -7.9972    2.7172 C   0  0  0  0  0  0  0  0  0  0  0  0
   -1.8508   -9.7543    1.2060 N   0  0  0  0  0  0  0  0  0  0  0  0
   -3.2197   -9.3496    1.0221 C   0  0  0  0  0  0  0  0  0  0  0  0
   -4.1247  -10.2097    1.2087 O   0  0  0  0  0  0  0  0  0  0  0  0
   -3.6309   -7.9702    0.5631 C   0  0  1  0  0  0  0  0  0  0  0  0
   -4.2940   -8.0717   -0.8172 C   0  0  0  0  0  0  0  0  0  0  0  0
   -4.5641   -7.3897    1.5350 N   0  0  0  0  0  0  0  0  0  0  0  0
   -5.2183   -6.1414    1.3023 C   0  0  0  0  0  0  0  0  0  0  0  0
   -4.5263   -5.0890    1.1589 O   0  0  0  0  0  0  0  0  0  0  0  0
   -6.7186   -6.0885    1.1341 C   0  0  1  0  0  0  0  0  0  0  0  0
   -7.4142   -7.0958    2.0553 C   0  0  0  0  0  0  0  0  0  0  0  0
   -7.2229   -4.7366    1.4269 N   0  0  0  0  0  0  0  0  0  0  0  0
   -7.7197   -3.8336    0.4256 C   0  0  0  0  0  0  0  0  0  0  0  0
   -7.4500   -2.6148    0.5608 O   0  0  0  0  0  0  0  0  0  0  0  0
   -8.5240   -4.3193   -0.7757 C   0  0  1  0  0  0  0  0  0  0  0  0
   -9.6440   -5.2891   -0.3533 C   0  0  0  0  0  0  0  0  0  0  0  0
   -9.0994   -3.2617   -1.6296 N   0  0  0  0  0  0  0  0  0  0  0  0
   -9.3637   -1.9049   -1.2430 C   0  0  0  0  0  0  0  0  0  0  0  0
   -8.4760   -1.0269   -1.4315 O   0  0  0  0  0  0  0  0  0  0  0  0
  -10.6978   -1.4813   -0.6759 C   0  0  1  0  0  0  0  0  0  0  0  0
  -11.8395   -2.4474   -1.0145 C   0  0  0  0  0  0  0  0  0  0  0  0
  -10.5713   -1.3487    0.7775 N   0  0  0  0  0  0  0  0  0  0  0  0
  -10.5276   -0.0924    1.4743 C   0  0  0  0  0  0  0  0  0  0  0  0
   -9.7747    0.0014    2.4884 O   0  0  0  0  0  0  0  0  0  0  0  0
  -11.4453    1.0691    1.1250 C   0  0  1  0  0  0  0  0  0  0  0  0
  -12.8182    0.8426    1.7578 C   0  0  0  0  0  0  0  0  0  0  0  0
  -10.8845    2.3497    1.5876 N   0  0  0  0  0  0  0  0  0  0  0  0
  -10.8582    3.5032    0.7321 C   0  0  0  0  0  0  0  0  0  0  0  0
  -11.7086    3.6124   -0.1945 O   0  0  0  0  0  0  0  0  0  0  0  0
   -9.7905    4.5637    0.8717 C   0  0  1  0  0  0  0  0  0  0  0  0
   -9.6878    5.0906    2.3059 C   0  0  0  0  0  0  0  0  0  0  0  0
   -8.4972    4.0151    0.4493 N   0  0  0  0  0  0  0  0  0  0  0  0
   -7.7854    4.5005   -0.6933 C   0  0  0  0  0  0  0  0  0  0  0  0
   -7.7503    3.7933   -1.7335 O   0  0  0  0  0  0  0  0  0  0  0  0
   -7.0501    5.8220   -0.6747 C   0  0  1  0  0  0  0  0  0  0  0  0
   -8.0112    6.9899   -0.9146 C   0  0  0  0  0  0  0  0  0  0  0  0
   -6.3263    5.9936    0.5979 N   0  0  0  0  0  0  0  0  0  0  0  0
   -5.2671    6.9345    0.8571 C   0  0  0  0  0  0  0  0  0  0  0  0
   -4.8374    7.0444    2.0371 O   0  0  0  0  0  0  0  0  0  0  0  0
   -4.6443    7.8170   -0.2083 C   0  0  1  0  0  0  0  0  0  0  0  0
   -5.0838    9.2649   -0.0109 C   0  0  0  0  0  0  0  0  0  0  0  0
   -3.1823    7.7487   -0.1159 N   0  0  0  0  0  0  0  0  0  0  0  0
   -2.3305    7.4093   -1.2284 C   0  0  0  0  0  0  0  0  0  0  0  0
   -2.8396    6.9780   -2.3144 O   0  0  0  0  0  0  0  0  0  0  0  0
   -0.2441   10.2290   -4.2387 H   0  0  0  0  0  0  0  0  0  0  0  0
   -1.4301    9.7431   -2.9644 H   0  0  0  0  0  0  0  0  0  0  0  0
    0.2861   10.1403   -2.5006 H   0  0  0  0  0  0  0  0  0  0  0  0
   -0.0053    6.2628   -2.6532 H   0  0  0  0  0  0  0  0  0  0  0  0
   -0.6297    8.6189   -0.8561 H   0  0  0  0  0  0  0  0  0  0  0  0
   -0.5363    7.0948    0.9823 H   0  0  0  0  0  0  0  0  0  0  0  0
    0.8938    6.7932   -0.0707 H   0  0  0  0  0  0  0  0  0  0  0  0
    0.6768    5.2418    1.9472 H   0  0  0  0  0  0  0  0  0  0  0  0
   -0.0759    3.6489    1.8623 H   0  0  0  0  0  0  0  0  0  0  0  0
    0.7984    1.9486    0.1831 H   0  0  0  0  0  0  0  0  0  0  0  0
    4.9990    2.2705   -0.6874 H   0  0  0  0  0  0  0  0  0  0  0  0
    2.8738    5.6010    1.0243 H   0  0  0  0  0  0  0  0  0  0  0  0
    5.5848    4.9001   -1.0187 H   0  0  0  0  0  0  0  0  0  0  0  0
    5.1304    5.9055    0.4076 H   0  0  0  0  0  0  0  0  0  0  0  0
    7.5275    6.4157    0.8303 H   0  0  0  0  0  0  0  0  0  0  0  0
    8.8010    5.2756    1.3224 H   0  0  0  0  0  0  0  0  0  0  0  0
    7.5958    5.6433   -1.4745 H   0  0  0  0  0  0  0  0  0  0  0  0
    9.7086    5.8866   -3.2256 H   0  0  0  0  0  0  0  0  0  0  0  0
   10.8295    7.1717   -2.6441 H   0  0  0  0  0  0  0  0  0  0  0  0
    8.7779    3.8279   -2.3171 H   0  0  0  0  0  0  0  0  0  0  0  0
   11.0060    1.9107   -0.0949 H   0  0  0  0  0  0  0  0  0  0  0  0
   11.5896    4.2260   -0.8274 H   0  0  0  0  0  0  0  0  0  0  0  0
   12.3651    3.7416    0.7199 H   0  0  0  0  0  0  0  0  0  0  0  0
   10.9642    4.8652    0.7502 H   0  0  0  0  0  0  0  0  0  0  0  0
    9.6205    3.2860    2.2610 H   0  0  0  0  0  0  0  0  0  0  0  0
   10.6318   -0.0807    0.8463 H   0  0  0  0  0  0  0  0  0  0  0  0
   13.0618   -0.5140    1.3293 H   0  0  0  0  0  0  0  0  0  0  0  0
   12.9768    0.5366    2.7815 H   0  0  0  0  0  0  0  0  0  0  0  0
   12.7687    1.2439    1.1364 H   0  0  0  0  0  0  0  0  0  0  0  0
   11.1675   -1.0190    3.7051 H   0  0  0  0  0  0  0  0  0  0  0  0
    9.2916   -1.8979    0.4437 H   0  0  0  0  0  0  0  0  0  0  0  0
   11.7133   -1.9160   -0.0759 H   0  0  0  0  0  0  0  0  0  0  0  0
   11.8525   -3.6173    0.5102 H   0  0  0  0  0  0  0  0  0  0  0  0
   10.9033   -3.2377   -0.9696 H   0  0  0  0  0  0  0  0  0  0  0  0
    9.6487   -4.7984    1.2848 H   0  0  0  0  0  0  0  0  0  0  0  0
    6.0362   -4.1313   -0.4459 H   0  0  0  0  0  0  0  0  0  0  0  0
    7.1707   -1.7951    1.1835 H   0  0  0  0  0  0  0  0  0  0  0  0
    5.4568   -2.2640    0.8971 H   0  0  0  0  0  0  0  0  0  0  0  0
    6.5147   -3.3222    1.8982 H   0  0  0  0  0  0  0  0  0  0  0  0
    7.7630   -1.7867   -1.3169 H   0  0  0  0  0  0  0  0  0  0  0  0
    5.0462   -3.1358   -4.1600 H   0  0  0  0  0  0  0  0  0  0  0  0
    6.8114   -5.1904   -2.7462 H   0  0  0  0  0  0  0  0  0  0  0  0
    7.4453   -4.0472   -3.9902 H   0  0  0  0  0  0  0  0  0  0  0  0
    6.1402   -5.2128   -4.4037 H   0  0  0  0  0  0  0  0  0  0  0  0
    4.5645   -5.0706   -1.9251 H   0  0  0  0  0  0  0  0  0  0  0  0
    3.3424   -2.8203   -0.5175 H   0  0  0  0  0  0  0  0  0  0  0  0
    0.5948   -2.0505   -1.6390 H   0  0  0  0  0  0  0  0  0  0  0  0
    2.0072   -1.3375   -2.4132 H   0  0  0  0  0  0  0  0  0  0  0  0
    2.6991    0.6747   -1.9493 H   0  0  0  0  0  0  0  0  0  0  0  0
    3.9464    0.0991   -0.7909 H   0  0  0  0  0  0  0  0  0  0  0  0
    0.6287   -4.1189   -0.6859 H   0  0  0  0  0  0  0  0  0  0  0  0
    1.6262   -6.7424   -1.3150 H   0  0  0  0  0  0  0  0  0  0  0  0
    2.3300   -8.7472   -0.0924 H   0  0  0  0  0  0  0  0  0  0  0  0
    3.6961   -7.5874   -0.1153 H   0  0  0  0  0  0  0  0  0  0  0  0
    2.7061   -7.7777    1.3869 H   0  0  0  0  0  0  0  0  0  0  0  0
   -0.2448   -5.9840    0.4445 H   0  0  0  0  0  0  0  0  0  0  0  0
    0.1606   -9.5102    1.7248 H   0  0  0  0  0  0  0  0  0  0  0  0
   -1.3937   -8.6188    3.5312 H   0  0  0  0  0  0  0  0  0  0  0  0
   -1.6809   -7.1722    2.5021 H   0  0  0  0  0  0  0  0  0  0  0  0
   -0.0181   -7.5548    3.0763 H   0  0  0  0  0  0  0  0  0  0  0  0
   -1.6604  -10.7830    1.2275 H   0  0  0  0  0  0  0  0  0  0  0  0
   -2.7619   -7.3039    0.4673 H   0  0  0  0  0  0  0  0  0  0  0  0
   -5.2408   -8.6463   -0.7493 H   0  0  0  0  0  0  0  0  0  0  0  0
   -4.5255   -7.0491   -1.1965 H   0  0  0  0  0  0  0  0  0  0  0  0
   -3.6121   -8.5643   -1.5419 H   0  0  0  0  0  0  0  0  0  0  0  0
   -4.6159   -7.7952    2.5034 H   0  0  0  0  0  0  0  0  0  0  0  0
   -6.9377   -6.3736    0.0884 H   0  0  0  0  0  0  0  0  0  0  0  0
   -7.1471   -8.1332    1.7461 H   0  0  0  0  0  0  0  0  0  0  0  0
   -8.5199   -6.9940    1.9857 H   0  0  0  0  0  0  0  0  0  0  0  0
   -7.1105   -6.9407    3.1123 H   0  0  0  0  0  0  0  0  0  0  0  0
   -7.0146   -4.3449    2.3693 H   0  0  0  0  0  0  0  0  0  0  0  0
   -7.8139   -4.8895   -1.4188 H   0  0  0  0  0  0  0  0  0  0  0  0
  -10.1735   -4.9108    0.5466 H   0  0  0  0  0  0  0  0  0  0  0  0
  -10.3794   -5.4151   -1.1724 H   0  0  0  0  0  0  0  0  0  0  0  0
   -9.2370   -6.2944   -0.1322 H   0  0  0  0  0  0  0  0  0  0  0  0
   -9.4506   -3.5507   -2.5706 H   0  0  0  0  0  0  0  0  0  0  0  0
  -10.9451   -0.5150   -1.1519 H   0  0  0  0  0  0  0  0  0  0  0  0
  -11.8948   -2.6144   -2.1130 H   0  0  0  0  0  0  0  0  0  0  0  0
  -11.7014   -3.4167   -0.5025 H   0  0  0  0  0  0  0  0  0  0  0  0
  -12.8046   -2.0122   -0.6776 H   0  0  0  0  0  0  0  0  0  0  0  0
  -10.2931   -2.2008    1.3167 H   0  0  0  0  0  0  0  0  0  0  0  0
  -11.5892    1.1096    0.0298 H   0  0  0  0  0  0  0  0  0  0  0  0
  -13.2724   -0.0860    1.3483 H   0  0  0  0  0  0  0  0  0  0  0  0
  -12.7366    0.7610    2.8656 H   0  0  0  0  0  0  0  0  0  0  0  0
  -13.4875    1.6948    1.5113 H   0  0  0  0  0  0  0  0  0  0  0  0
  -10.4320    2.3982    2.5260 H   0  0  0  0  0  0  0  0  0  0  0  0
  -10.0720    5.4165    0.2218 H   0  0  0  0  0  0  0  0  0  0  0  0
  -10.6988    5.3001    2.7242 H   0  0  0  0  0  0  0  0  0  0  0  0
   -9.1080    6.0388    2.3110 H   0  0  0  0  0  0  0  0  0  0  0  0
   -9.1667    4.3566    2.9584 H   0  0  0  0  0  0  0  0  0  0  0  0
   -8.1872    3.1022    0.8568 H   0  0  0  0  0  0  0  0  0  0  0  0
   -6.3156    5.7905   -1.5063 H   0  0  0  0  0  0  0  0  0  0  0  0
   -7.4546    7.8740   -1.2812 H   0  0  0  0  0  0  0  0  0  0  0  0
   -8.7594    6.7233   -1.6944 H   0  0  0  0  0  0  0  0  0  0  0  0
   -8.5462    7.2603    0.0226 H   0  0  0  0  0  0  0  0  0  0  0  0
   -6.6460    5.4453    1.4240 H   0  0  0  0  0  0  0  0  0  0  0  0
   -4.9685    7.5067   -1.2218 H   0  0  0  0  0  0  0  0  0  0  0  0
   -4.6302    9.9103   -0.7934 H   0  0  0  0  0  0  0  0  0  0  0  0
   -6.1838    9.3535   -0.0763 H   0  0  0  0  0  0  0  0  0  0  0  0
   -4.7636    9.6442    0.9826 H   0  0  0  0  0  0  0  0  0  0  0  0
   -2.7260    7.9805    0.7995 H   0  0  0  0  0  0  0  0  0  0  0  0
  1  2  1  0
  2  3  2  0
  2  4  1  0
  4  5  1  0
  5  6  1  0
  6  7  1  0
  7  8  1  0
  8  9  1  0
  9 10  2  0
 10 11  1  0
 11 12  2  0
 12 13  1  0
 13 14  2  0
 13 15  1  0
 15 16  1  0
 16 17  1  0
 17 18  1  0
 18 19  1  0
 19 20  1  0
 19 21  2  0
 18 22  1  0
 22 23  1  0
 23 24  2  0
 23 25  1  0
 25 26  1  0
 25 27  1  0
 27 28  1  0
 28 29  2  0
 28 30  1  0
 30 31  1  0
 30 32  1  0
 32 33  1  0
 33 34  2  0
 33 35  1  0
 35 36  1  0
 35 37  1  0
 37 38  1  0
 38 39  2  0
 38 40  1  0
 40 41  1  0
 40 42  1  0
 42 43  1  0
 43 44  2  0
 43 45  1  0
 45 46  1  0
 45 47  1  0
 47 48  1  0
 48 49  2  0
 48 50  1  0
 50 51  1  0
 51 52  1  0
 52 53  1  0
 50 54  1  0
 54 55  1  0
 55 56  2  0
 55 57  1  0
 57 58  1  0
 57 59  1  0
 59 60  1  0
 60 61  2  0
 60 62  1  0
 62 63  1  0
 62 64  1  0
 64 65  1  0
 65 66  2  0
 65 67  1  0
 67 68  1  0
 67 69  1  0
 69 70  1  0
 70 71  2  0
 70 72  1  0
 72 73  1  0
 72 74  1  0
 74 75  1  0
 75 76  2  0
 75 77  1  0
 77 78  1  0
 77 79  1  0
 79 80  1  0
 80 81  2  0
 80 82  1  0
 82 83  1  0
 82 84  1  0
 84 85  1  0
 85 86  2  0
 85 87  1  0
 87 88  1  0
 87 89  1  0
 89 90  1  0
 90 91  2  0
 90 92  1  0
 92 93  1  0
 92 94  1  0
 94 95  1  0
 95 96  2  0
 95 97  1  0
 97 98  1  0
 97 99  1  0
 99100  1  0
100101  2  0
100102  1  0
102103  1  0
102104  1  0
104105  1  0
105106  2  0
105  5  1  0
 14  9  1  0
 53 11  1  0
  1107  1  0
  1108  1  0
  1109  1  0
  4110  1  0
  5111  1  1
  6112  1  0
  6113  1  0
  8114  1  0
  8115  1  0
 10116  1  0
 12117  1  0
 14118  1  0
 15119  1  0
 15120  1  0
 17121  1  0
 17122  1  0
 18123  1  6
 20124  1  0
 20125  1  0
 22126  1  0
 25127  1  6
 26128  1  0
 26129  1  0
 26130  1  0
 27131  1  0
 30132  1  6
 31133  1  0
 31134  1  0
 31135  1  0
 32136  1  0
 35137  1  6
 36138  1  0
 36139  1  0
 36140  1  0
 37141  1  0
 40142  1  6
 41143  1  0
 41144  1  0
 41145  1  0
 42146  1  0
 45147  1  6
 46148  1  0
 46149  1  0
 46150  1  0
 47151  1  0
 50152  1  1
 51153  1  0
 51154  1  0
 53155  1  0
 53156  1  0
 54157  1  0
 57158  1  6
 58159  1  0
 58160  1  0
 58161  1  0
 59162  1  0
 62163  1  1
 63164  1  0
 63165  1  0
 63166  1  0
 64167  1  0
 67168  1  6
 68169  1  0
 68170  1  0
 68171  1  0
 69172  1  0
 72173  1  6
 73174  1  0
 73175  1  0
 73176  1  0
 74177  1  0
 77178  1  6
 78179  1  0
 78180  1  0
 78181  1  0
 79182  1  0
 82183  1  6
 83184  1  0
 83185  1  0
 83186  1  0
 84187  1  0
 87188  1  6
 88189  1  0
 88190  1  0
 88191  1  0
 89192  1  0
 92193  1  6
 93194  1  0
 93195  1  0
 93196  1  0
 94197  1  0
 97198  1  6
 98199  1  0
 98200  1  0
 98201  1  0
 99202  1  0
102203  1  6
103204  1  0
103205  1  0
103206  1  0
104207  1  0
M  END
