
     RDKit          3D

217219  0  0  0  0  0  0  0  0999 V2000
   -1.3680   10.8559    0.9267 C   0  0  0  0  0  0  0  0  0  0  0  0
   -1.3915    9.3778    1.1407 C   0  0  0  0  0  0  0  0  0  0  0  0
   -1.5081    8.9294    2.3108 O   0  0  0  0  0  0  0  0  0  0  0  0
   -1.3228    8.4732    0.0245 N   0  0  0  0  0  0  0  0  0  0  0  0
   -1.2914    7.0123    0.1780 C   0  0  2  0  0  0  0  0  0  0  0  0
   -0.7101    6.3682   -1.0972 C   0  0  0  0  0  0  0  0  0  0  0  0
   -0.5071    4.5367   -1.0271 S   0  0  0  0  0  0  0  0  0  0  0  0
    0.8015    4.4767    0.2579 C   0  0  0  0  0  0  0  0  0  0  0  0
    1.7780    3.3467    0.0135 C   0  0  0  0  0  0  0  0  0  0  0  0
    3.1602    3.5823    0.1262 C   0  0  0  0  0  0  0  0  0  0  0  0
    4.0877    2.5278    0.0088 C   0  0  0  0  0  0  0  0  0  0  0  0
    3.6189    1.2461   -0.3050 C   0  0  0  0  0  0  0  0  0  0  0  0
    2.2372    0.9866   -0.4167 C   0  0  0  0  0  0  0  0  0  0  0  0
    1.3269    2.0482   -0.2536 C   0  0  0  0  0  0  0  0  0  0  0  0
    1.7560   -0.4219   -0.6141 C   0  0  0  0  0  0  0  0  0  0  0  0
    1.6851   -1.3001    0.9912 S   0  0  0  0  0  0  0  0  0  0  0  0
    3.2860   -2.1992    0.8744 C   0  0  0  0  0  0  0  0  0  0  0  0
    3.0661   -3.7168    1.0066 C   0  0  1  0  0  0  0  0  0  0  0  0
    2.4463   -4.2795   -0.2107 N   0  0  0  0  0  0  0  0  0  0  0  0
    1.0607   -4.6539   -0.2457 C   0  0  0  0  0  0  0  0  0  0  0  0
    0.2378   -3.8396   -0.7468 O   0  0  0  0  0  0  0  0  0  0  0  0
    0.6176   -6.0660    0.0686 C   0  0  1  0  0  0  0  0  0  0  0  0
    1.5210   -6.7399    1.1063 C   0  0  0  0  0  0  0  0  0  0  0  0
   -0.7656   -6.0858    0.5421 N   0  0  0  0  0  0  0  0  0  0  0  0
   -1.8855   -6.2257   -0.3540 C   0  0  0  0  0  0  0  0  0  0  0  0
   -1.9488   -5.5134   -1.3958 O   0  0  0  0  0  0  0  0  0  0  0  0
   -2.9442   -7.2745   -0.1174 C   0  0  1  0  0  0  0  0  0  0  0  0
   -2.2689   -8.6391    0.0688 C   0  0  0  0  0  0  0  0  0  0  0  0
   -3.7614   -6.9303    1.0546 N   0  0  0  0  0  0  0  0  0  0  0  0
   -5.0313   -7.5365    1.3731 C   0  0  0  0  0  0  0  0  0  0  0  0
   -5.5041   -7.3601    2.5301 O   0  0  0  0  0  0  0  0  0  0  0  0
   -5.8458   -8.2843    0.3389 C   0  0  1  0  0  0  0  0  0  0  0  0
   -6.8678   -9.2305    0.9834 C   0  0  0  0  0  0  0  0  0  0  0  0
   -6.5102   -7.3640   -0.5898 N   0  0  0  0  0  0  0  0  0  0  0  0
   -7.4055   -6.3251   -0.1570 C   0  0  0  0  0  0  0  0  0  0  0  0
   -6.9780   -5.4303    0.6280 O   0  0  0  0  0  0  0  0  0  0  0  0
   -8.8480   -6.2617   -0.6198 C   0  0  1  0  0  0  0  0  0  0  0  0
   -9.2241   -7.4430   -1.5238 C   0  0  0  0  0  0  0  0  0  0  0  0
   -9.7366   -6.2428    0.5522 N   0  0  0  0  0  0  0  0  0  0  0  0
  -11.1040   -5.8143    0.5129 C   0  0  0  0  0  0  0  0  0  0  0  0
  -11.9516   -6.4572    1.1914 O   0  0  0  0  0  0  0  0  0  0  0  0
  -11.5688   -4.6440   -0.3281 C   0  0  1  0  0  0  0  0  0  0  0  0
  -11.9350   -5.0946   -1.7451 C   0  0  0  0  0  0  0  0  0  0  0  0
  -12.7572   -4.0286    0.2853 N   0  0  0  0  0  0  0  0  0  0  0  0
  -12.9696   -2.6263    0.5596 C   0  0  0  0  0  0  0  0  0  0  0  0
  -14.1304   -2.2678    0.9131 O   0  0  0  0  0  0  0  0  0  0  0  0
  -11.9028   -1.5716    0.3510 C   0  0  1  0  0  0  0  0  0  0  0  0
  -11.7846   -1.1994   -1.1313 C   0  0  0  0  0  0  0  0  0  0  0  0
  -12.1577   -0.3652    1.1614 N   0  0  0  0  0  0  0  0  0  0  0  0
  -13.0665    0.6708    0.7742 C   0  0  0  0  0  0  0  0  0  0  0  0
  -14.2459    0.3765    0.4187 O   0  0  0  0  0  0  0  0  0  0  0  0
  -12.6586    2.1223    0.8166 C   0  0  1  0  0  0  0  0  0  0  0  0
  -13.3840    2.8623    1.9468 C   0  0  0  0  0  0  0  0  0  0  0  0
  -11.1959    2.2693    0.9063 N   0  0  0  0  0  0  0  0  0  0  0  0
  -10.5873    3.5023    1.3003 C   0  0  0  0  0  0  0  0  0  0  0  0
  -10.5262    3.7814    2.5271 O   0  0  0  0  0  0  0  0  0  0  0  0
  -10.0018    4.4272    0.2657 C   0  0  1  0  0  0  0  0  0  0  0  0
  -11.0207    4.7062   -0.8449 C   0  0  0  0  0  0  0  0  0  0  0  0
   -9.5755    5.7016    0.8590 N   0  0  0  0  0  0  0  0  0  0  0  0
   -8.3632    6.4004    0.5179 C   0  0  0  0  0  0  0  0  0  0  0  0
   -7.8490    7.1683    1.3767 O   0  0  0  0  0  0  0  0  0  0  0  0
   -7.7648    6.3656   -0.8721 C   0  0  1  0  0  0  0  0  0  0  0  0
   -8.3167    7.5565   -1.6780 C   0  0  0  0  0  0  0  0  0  0  0  0
   -6.2930    6.3643   -0.7650 N   0  0  0  0  0  0  0  0  0  0  0  0
   -5.3960    7.2193   -1.4943 C   0  0  0  0  0  0  0  0  0  0  0  0
   -5.5863    7.4402   -2.7176 O   0  0  0  0  0  0  0  0  0  0  0  0
   -4.2823    7.9516   -0.7871 C   0  0  1  0  0  0  0  0  0  0  0  0
   -4.7597    9.3588   -0.4170 C   0  0  0  0  0  0  0  0  0  0  0  0
   -3.8661    7.2390    0.4264 N   0  0  0  0  0  0  0  0  0  0  0  0
   -2.6605    6.4637    0.5238 C   0  0  0  0  0  0  0  0  0  0  0  0
   -2.7490    5.2955    0.9968 O   0  0  0  0  0  0  0  0  0  0  0  0
    4.3481   -4.4287    1.4182 C   0  0  0  0  0  0  0  0  0  0  0  0
    4.7159   -4.3237    2.6183 O   0  0  0  0  0  0  0  0  0  0  0  0
    5.1459   -5.2471    0.5428 N   0  0  0  0  0  0  0  0  0  0  0  0
    5.4381   -4.9349   -0.8574 C   0  0  2  0  0  0  0  0  0  0  0  0
    4.7966   -6.0041   -1.7641 C   0  0  0  0  0  0  0  0  0  0  0  0
    6.9369   -4.8404   -1.1012 C   0  0  0  0  0  0  0  0  0  0  0  0
    7.3514   -4.6391   -2.2697 O   0  0  0  0  0  0  0  0  0  0  0  0
    7.8854   -4.8901   -0.0280 N   0  0  0  0  0  0  0  0  0  0  0  0
    8.2091   -3.7010    0.7675 C   0  0  2  0  0  0  0  0  0  0  0  0
    8.2906   -2.4248   -0.0826 C   0  0  0  0  0  0  0  0  0  0  0  0
    9.4409   -3.9544    1.6293 C   0  0  0  0  0  0  0  0  0  0  0  0
    9.2496   -4.1551    2.8632 O   0  0  0  0  0  0  0  0  0  0  0  0
   10.8007   -4.0659    1.1420 N   0  0  0  0  0  0  0  0  0  0  0  0
   11.3066   -3.7103   -0.1929 C   0  0  2  0  0  0  0  0  0  0  0  0
   10.9740   -4.8116   -1.2085 C   0  0  0  0  0  0  0  0  0  0  0  0
   12.8082   -3.5127   -0.1566 C   0  0  0  0  0  0  0  0  0  0  0  0
   13.5612   -4.4242    0.2628 O   0  0  0  0  0  0  0  0  0  0  0  0
   13.3867   -2.3271   -0.7190 N   0  0  0  0  0  0  0  0  0  0  0  0
   13.5261   -1.0406   -0.0159 C   0  0  2  0  0  0  0  0  0  0  0  0
   14.9929   -0.8379    0.3835 C   0  0  0  0  0  0  0  0  0  0  0  0
   12.6303   -0.9359    1.2011 C   0  0  0  0  0  0  0  0  0  0  0  0
   12.7927   -1.7328    2.1615 O   0  0  0  0  0  0  0  0  0  0  0  0
   11.5716    0.0366    1.2812 N   0  0  0  0  0  0  0  0  0  0  0  0
   11.6054    1.3778    0.6709 C   0  0  2  0  0  0  0  0  0  0  0  0
   12.8715    2.1338    1.1042 C   0  0  0  0  0  0  0  0  0  0  0  0
   10.3778    2.1557    1.0744 C   0  0  0  0  0  0  0  0  0  0  0  0
   10.0706    2.2415    2.2945 O   0  0  0  0  0  0  0  0  0  0  0  0
    9.5396    2.7961    0.1028 N   0  0  0  0  0  0  0  0  0  0  0  0
   10.0667    3.6263   -0.9957 C   0  0  2  0  0  0  0  0  0  0  0  0
   10.8506    4.8419   -0.4683 C   0  0  0  0  0  0  0  0  0  0  0  0
    8.9388    4.0238   -1.9362 C   0  0  0  0  0  0  0  0  0  0  0  0
    9.0197    3.6746   -3.1464 O   0  0  0  0  0  0  0  0  0  0  0  0
    7.7521    4.7193   -1.4985 N   0  0  0  0  0  0  0  0  0  0  0  0
    7.6362    5.5360   -0.2852 C   0  0  1  0  0  0  0  0  0  0  0  0
    7.9770    6.9742   -0.6064 C   0  0  0  0  0  0  0  0  0  0  0  0
    8.0948    7.9306    0.4488 N   0  0  0  0  0  0  0  0  0  0  0  0
    8.1906    7.3299   -1.7914 O   0  0  0  0  0  0  0  0  0  0  0  0
    6.2105    5.4342    0.2958 C   0  0  0  0  0  0  0  0  0  0  0  0
    6.0358    3.9821    1.3977 S   0  0  0  0  0  0  0  0  0  0  0  0
    5.5754    2.7536    0.1204 C   0  0  0  0  0  0  0  0  0  0  0  0
   -2.2898   11.3175    1.3475 H   0  0  0  0  0  0  0  0  0  0  0  0
   -1.3291   11.1006   -0.1607 H   0  0  0  0  0  0  0  0  0  0  0  0
   -0.4843   11.2963    1.4248 H   0  0  0  0  0  0  0  0  0  0  0  0
   -1.2042    8.8862   -0.9298 H   0  0  0  0  0  0  0  0  0  0  0  0
   -0.6052    6.7766    1.0184 H   0  0  0  0  0  0  0  0  0  0  0  0
    0.2746    6.8245   -1.3232 H   0  0  0  0  0  0  0  0  0  0  0  0
   -1.3739    6.5988   -1.9516 H   0  0  0  0  0  0  0  0  0  0  0  0
    0.3115    4.3169    1.2455 H   0  0  0  0  0  0  0  0  0  0  0  0
    1.3486    5.4516    0.2963 H   0  0  0  0  0  0  0  0  0  0  0  0
    3.4938    4.5881    0.3363 H   0  0  0  0  0  0  0  0  0  0  0  0
    4.3090    0.4333   -0.4344 H   0  0  0  0  0  0  0  0  0  0  0  0
    0.2663    1.8486   -0.3477 H   0  0  0  0  0  0  0  0  0  0  0  0
    0.7315   -0.4210   -1.0505 H   0  0  0  0  0  0  0  0  0  0  0  0
    2.3968   -0.9501   -1.3487 H   0  0  0  0  0  0  0  0  0  0  0  0
    3.8577   -1.9812   -0.0599 H   0  0  0  0  0  0  0  0  0  0  0  0
    3.9098   -1.8463    1.7152 H   0  0  0  0  0  0  0  0  0  0  0  0
    2.3605   -3.8774    1.8557 H   0  0  0  0  0  0  0  0  0  0  0  0
    2.8452   -3.9983   -1.1281 H   0  0  0  0  0  0  0  0  0  0  0  0
    0.6871   -6.6585   -0.8682 H   0  0  0  0  0  0  0  0  0  0  0  0
    1.6395   -6.0865    1.9851 H   0  0  0  0  0  0  0  0  0  0  0  0
    1.1079   -7.7267    1.4326 H   0  0  0  0  0  0  0  0  0  0  0  0
    2.5298   -6.9072    0.6972 H   0  0  0  0  0  0  0  0  0  0  0  0
   -0.9630   -6.0873    1.5733 H   0  0  0  0  0  0  0  0  0  0  0  0
   -3.5995   -7.3242   -1.0214 H   0  0  0  0  0  0  0  0  0  0  0  0
   -3.0045   -9.4521    0.1150 H   0  0  0  0  0  0  0  0  0  0  0  0
   -1.6657   -8.6417    1.0059 H   0  0  0  0  0  0  0  0  0  0  0  0
   -1.5883   -8.8395   -0.7853 H   0  0  0  0  0  0  0  0  0  0  0  0
   -3.5341   -6.0603    1.5793 H   0  0  0  0  0  0  0  0  0  0  0  0
   -5.1719   -8.9413   -0.2507 H   0  0  0  0  0  0  0  0  0  0  0  0
   -7.3969   -9.8242    0.1888 H   0  0  0  0  0  0  0  0  0  0  0  0
   -7.6437   -8.6634    1.5565 H   0  0  0  0  0  0  0  0  0  0  0  0
   -6.3639   -9.9444    1.6592 H   0  0  0  0  0  0  0  0  0  0  0  0
   -6.5066   -7.6158   -1.5987 H   0  0  0  0  0  0  0  0  0  0  0  0
   -8.9564   -5.3249   -1.1917 H   0  0  0  0  0  0  0  0  0  0  0  0
   -8.6886   -7.3824   -2.4965 H   0  0  0  0  0  0  0  0  0  0  0  0
  -10.3110   -7.4438   -1.7333 H   0  0  0  0  0  0  0  0  0  0  0  0
   -8.9918   -8.4156   -1.0318 H   0  0  0  0  0  0  0  0  0  0  0  0
   -9.4593   -6.8363    1.3753 H   0  0  0  0  0  0  0  0  0  0  0  0
  -10.7415   -3.9075   -0.3957 H   0  0  0  0  0  0  0  0  0  0  0  0
  -11.0234   -5.3210   -2.3333 H   0  0  0  0  0  0  0  0  0  0  0  0
  -12.5854   -5.9943   -1.7161 H   0  0  0  0  0  0  0  0  0  0  0  0
  -12.4781   -4.2876   -2.2765 H   0  0  0  0  0  0  0  0  0  0  0  0
  -13.5927   -4.6472    0.4204 H   0  0  0  0  0  0  0  0  0  0  0  0
  -10.9301   -1.9868    0.6826 H   0  0  0  0  0  0  0  0  0  0  0  0
  -12.7684   -0.8795   -1.5472 H   0  0  0  0  0  0  0  0  0  0  0  0
  -11.4230   -2.0619   -1.7368 H   0  0  0  0  0  0  0  0  0  0  0  0
  -11.0603   -0.3652   -1.2634 H   0  0  0  0  0  0  0  0  0  0  0  0
  -11.6192   -0.2529    2.0506 H   0  0  0  0  0  0  0  0  0  0  0  0
  -12.9827    2.5785   -0.1455 H   0  0  0  0  0  0  0  0  0  0  0  0
  -13.0047    2.5531    2.9427 H   0  0  0  0  0  0  0  0  0  0  0  0
  -14.4818    2.6557    1.8957 H   0  0  0  0  0  0  0  0  0  0  0  0
  -13.2612    3.9622    1.8222 H   0  0  0  0  0  0  0  0  0  0  0  0
  -10.6279    1.6688    0.2579 H   0  0  0  0  0  0  0  0  0  0  0  0
   -9.1236    3.9051   -0.1782 H   0  0  0  0  0  0  0  0  0  0  0  0
  -10.6039    5.4381   -1.5685 H   0  0  0  0  0  0  0  0  0  0  0  0
  -11.2461    3.7719   -1.4019 H   0  0  0  0  0  0  0  0  0  0  0  0
  -11.9613    5.1178   -0.4239 H   0  0  0  0  0  0  0  0  0  0  0  0
  -10.1773    6.1353    1.5985 H   0  0  0  0  0  0  0  0  0  0  0  0
   -8.0682    5.4358   -1.4000 H   0  0  0  0  0  0  0  0  0  0  0  0
   -7.9062    8.5146   -1.2887 H   0  0  0  0  0  0  0  0  0  0  0  0
   -9.4245    7.5980   -1.5997 H   0  0  0  0  0  0  0  0  0  0  0  0
   -8.0748    7.4512   -2.7531 H   0  0  0  0  0  0  0  0  0  0  0  0
   -5.8673    5.6239   -0.1638 H   0  0  0  0  0  0  0  0  0  0  0  0
   -3.4299    8.0483   -1.4887 H   0  0  0  0  0  0  0  0  0  0  0  0
   -3.9784    9.8952    0.1660 H   0  0  0  0  0  0  0  0  0  0  0  0
   -4.9778    9.9507   -1.3303 H   0  0  0  0  0  0  0  0  0  0  0  0
   -5.6816    9.3113    0.2111 H   0  0  0  0  0  0  0  0  0  0  0  0
   -4.5709    7.1130    1.1883 H   0  0  0  0  0  0  0  0  0  0  0  0
    5.6151   -6.0826    0.9727 H   0  0  0  0  0  0  0  0  0  0  0  0
    5.0284   -3.9373   -1.1143 H   0  0  0  0  0  0  0  0  0  0  0  0
    4.3096   -5.5093   -2.6410 H   0  0  0  0  0  0  0  0  0  0  0  0
    5.5422   -6.7497   -2.1302 H   0  0  0  0  0  0  0  0  0  0  0  0
    4.0051   -6.5579   -1.2183 H   0  0  0  0  0  0  0  0  0  0  0  0
    8.3985   -5.7793    0.1277 H   0  0  0  0  0  0  0  0  0  0  0  0
    7.3604   -3.5345    1.4733 H   0  0  0  0  0  0  0  0  0  0  0  0
    8.7610   -2.6277   -1.0636 H   0  0  0  0  0  0  0  0  0  0  0  0
    7.2612   -2.0671   -0.3011 H   0  0  0  0  0  0  0  0  0  0  0  0
    8.8352   -1.6188    0.4503 H   0  0  0  0  0  0  0  0  0  0  0  0
   11.5079   -4.3476    1.8615 H   0  0  0  0  0  0  0  0  0  0  0  0
   10.8737   -2.7515   -0.5271 H   0  0  0  0  0  0  0  0  0  0  0  0
    9.9169   -4.7614   -1.5044 H   0  0  0  0  0  0  0  0  0  0  0  0
   11.5724   -4.6827   -2.1404 H   0  0  0  0  0  0  0  0  0  0  0  0
   11.1941   -5.8175   -0.7793 H   0  0  0  0  0  0  0  0  0  0  0  0
   13.9530   -2.4561   -1.5888 H   0  0  0  0  0  0  0  0  0  0  0  0
   13.2702   -0.2467   -0.7386 H   0  0  0  0  0  0  0  0  0  0  0  0
   15.3470   -1.6591    1.0481 H   0  0  0  0  0  0  0  0  0  0  0  0
   15.6395   -0.8207   -0.5232 H   0  0  0  0  0  0  0  0  0  0  0  0
   15.1258    0.1323    0.9128 H   0  0  0  0  0  0  0  0  0  0  0  0
   10.7827   -0.2017    1.9239 H   0  0  0  0  0  0  0  0  0  0  0  0
   11.6145    1.2631   -0.4359 H   0  0  0  0  0  0  0  0  0  0  0  0
   13.7039    1.9223    0.4047 H   0  0  0  0  0  0  0  0  0  0  0  0
   12.7187    3.2342    1.1058 H   0  0  0  0  0  0  0  0  0  0  0  0
   13.1818    1.8358    2.1291 H   0  0  0  0  0  0  0  0  0  0  0  0
    8.5051    2.7395    0.2593 H   0  0  0  0  0  0  0  0  0  0  0  0
   10.7697    3.0124   -1.5989 H   0  0  0  0  0  0  0  0  0  0  0  0
   11.9370    4.6551   -0.5498 H   0  0  0  0  0  0  0  0  0  0  0  0
   10.6371    5.7667   -1.0502 H   0  0  0  0  0  0  0  0  0  0  0  0
   10.6297    5.0478    0.6026 H   0  0  0  0  0  0  0  0  0  0  0  0
    6.9880    4.8106   -2.2102 H   0  0  0  0  0  0  0  0  0  0  0  0
    8.3463    5.1848    0.4792 H   0  0  0  0  0  0  0  0  0  0  0  0
    8.2499    8.9500    0.2227 H   0  0  0  0  0  0  0  0  0  0  0  0
    8.0227    7.6567    1.4492 H   0  0  0  0  0  0  0  0  0  0  0  0
    6.0066    6.3208    0.9330 H   0  0  0  0  0  0  0  0  0  0  0  0
    5.4465    5.4322   -0.5111 H   0  0  0  0  0  0  0  0  0  0  0  0
    6.0723    1.7995    0.4092 H   0  0  0  0  0  0  0  0  0  0  0  0
    5.9812    3.0289   -0.8726 H   0  0  0  0  0  0  0  0  0  0  0  0
  1  2  1  0
  2  3  2  0
  2  4  1  0
  4  5  1  0
  5  6  1  0
  6  7  1  0
  7  8  1  0
  8  9  1  0
  9 10  2  0
 10 11  1  0
 11 12  2  0
 12 13  1  0
 13 14  2  0
 13 15  1  0
 15 16  1  0
 16 17  1  0
 17 18  1  0
 18 19  1  0
 19 20  1  0
 20 21  2  0
 20 22  1  0
 22 23  1  0
 22 24  1  0
 24 25  1  0
 25 26  2  0
 25 27  1  0
 27 28  1  0
 27 29  1  0
 29 30  1  0
 30 31  2  0
 30 32  1  0
 32 33  1  0
 32 34  1  0
 34 35  1  0
 35 36  2  0
 35 37  1  0
 37 38  1  0
 37 39  1  0
 39 40  1  0
 40 41  2  0
 40 42  1  0
 42 43  1  0
 42 44  1  0
 44 45  1  0
 45 46  2  0
 45 47  1  0
 47 48  1  0
 47 49  1  0
 49 50  1  0
 50 51  2  0
 50 52  1  0
 52 53  1  0
 52 54  1  0
 54 55  1  0
 55 56  2  0
 55 57  1  0
 57 58  1  0
 57 59  1  0
 59 60  1  0
 60 61  2  0
 60 62  1  0
 62 63  1  0
 62 64  1  0
 64 65  1  0
 65 66  2  0
 65 67  1  0
 67 68  1  0
 67 69  1  0
 69 70  1  0
 70 71  2  0
 18 72  1  0
 72 73  2  0
 72 74  1  0
 74 75  1  0
 75 76  1  0
 75 77  1  0
 77 78  2  0
 77 79  1  0
 79 80  1  0
 80 81  1  0
 80 82  1  0
 82 83  2  0
 82 84  1  0
 84 85  1  0
 85 86  1  0
 85 87  1  0
 87 88  2  0
 87 89  1  0
 89 90  1  0
 90 91  1  0
 90 92  1  0
 92 93  2  0
 92 94  1  0
 94 95  1  0
 95 96  1  0
 95 97  1  0
 97 98  2  0
 97 99  1  0
 99100  1  0
100101  1  0
100102  1  0
102103  2  0
102104  1  0
104105  1  0
105106  1  0
106107  1  0
106108  2  0
105109  1  0
109110  1  0
110111  1  0
 70  5  1  0
 14  9  1  0
111 11  1  0
  1112  1  0
  1113  1  0
  1114  1  0
  4115  1  0
  5116  1  1
  6117  1  0
  6118  1  0
  8119  1  0
  8120  1  0
 10121  1  0
 12122  1  0
 14123  1  0
 15124  1  0
 15125  1  0
 17126  1  0
 17127  1  0
 18128  1  1
 19129  1  0
 22130  1  6
 23131  1  0
 23132  1  0
 23133  1  0
 24134  1  0
 27135  1  6
 28136  1  0
 28137  1  0
 28138  1  0
 29139  1  0
 32140  1  6
 33141  1  0
 33142  1  0
 33143  1  0
 34144  1  0
 37145  1  6
 38146  1  0
 38147  1  0
 38148  1  0
 39149  1  0
 42150  1  6
 43151  1  0
 43152  1  0
 43153  1  0
 44154  1  0
 47155  1  1
 48156  1  0
 48157  1  0
 48158  1  0
 49159  1  0
 52160  1  6
 53161  1  0
 53162  1  0
 53163  1  0
 54164  1  0
 57165  1  6
 58166  1  0
 58167  1  0
 58168  1  0
 59169  1  0
 62170  1  6
 63171  1  0
 63172  1  0
 63173  1  0
 64174  1  0
 67175  1  6
 68176  1  0
 68177  1  0
 68178  1  0
 69179  1  0
 74180  1  0
 75181  1  6
 76182  1  0
 76183  1  0
 76184  1  0
 79185  1  0
 80186  1  1
 81187  1  0
 81188  1  0
 81189  1  0
 84190  1  0
 85191  1  6
 86192  1  0
 86193  1  0
 86194  1  0
 89195  1  0
 90196  1  6
 91197  1  0
 91198  1  0
 91199  1  0
 94200  1  0
 95201  1  6
 96202  1  0
 96203  1  0
 96204  1  0
 99205  1  0
100206  1  6
101207  1  0
101208  1  0
101209  1  0
104210  1  0
105211  1  1
107212  1  0
107213  1  0
109214  1  0
109215  1  0
111216  1  0
111217  1  0
M  END
