
     RDKit          3D

197199  0  0  0  0  0  0  0  0999 V2000
    0.2741    9.4186   -0.0285 C   0  0  0  0  0  0  0  0  0  0  0  0
    0.2964    8.6297    1.2456 C   0  0  0  0  0  0  0  0  0  0  0  0
    1.1349    8.9319    2.1359 O   0  0  0  0  0  0  0  0  0  0  0  0
   -0.6161    7.5452    1.4889 N   0  0  0  0  0  0  0  0  0  0  0  0
   -1.6467    7.0965    0.5408 C   0  0  1  0  0  0  0  0  0  0  0  0
   -1.0846    6.0118   -0.4029 C   0  0  0  0  0  0  0  0  0  0  0  0
   -0.2332    4.6680    0.5041 S   0  0  0  0  0  0  0  0  0  0  0  0
    0.6947    3.9863   -0.9185 C   0  0  0  0  0  0  0  0  0  0  0  0
    2.0348    3.5174   -0.4288 C   0  0  0  0  0  0  0  0  0  0  0  0
    2.1406    2.3060    0.2666 C   0  0  0  0  0  0  0  0  0  0  0  0
    3.3685    1.9066    0.8163 C   0  0  0  0  0  0  0  0  0  0  0  0
    4.4818    2.7584    0.7019 C   0  0  0  0  0  0  0  0  0  0  0  0
    4.3900    3.9652   -0.0032 C   0  0  0  0  0  0  0  0  0  0  0  0
    3.1657    4.3329   -0.5794 C   0  0  0  0  0  0  0  0  0  0  0  0
    5.5828    4.8799   -0.1236 C   0  0  0  0  0  0  0  0  0  0  0  0
    6.8670    4.1414   -1.1918 S   0  0  0  0  0  0  0  0  0  0  0  0
    7.8490    3.3207    0.1231 C   0  0  0  0  0  0  0  0  0  0  0  0
    9.3453    3.5526   -0.1113 C   0  0  1  0  0  0  0  0  0  0  0  0
    9.6949    5.0111    0.0491 C   0  0  0  0  0  0  0  0  0  0  0  0
   10.3450    5.7218   -1.0006 N   0  0  0  0  0  0  0  0  0  0  0  0
    9.4241    5.6099    1.1295 O   0  0  0  0  0  0  0  0  0  0  0  0
   10.1363    2.7543    0.8295 N   0  0  0  0  0  0  0  0  0  0  0  0
   11.1185    1.7889    0.4256 C   0  0  0  0  0  0  0  0  0  0  0  0
   12.1860    1.6934    1.0895 O   0  0  0  0  0  0  0  0  0  0  0  0
   10.8991    0.8556   -0.7456 C   0  0  1  0  0  0  0  0  0  0  0  0
   11.5152    1.4413   -2.0309 C   0  0  0  0  0  0  0  0  0  0  0  0
   11.4905   -0.4556   -0.4598 N   0  0  0  0  0  0  0  0  0  0  0  0
   10.8099   -1.5302    0.2185 C   0  0  0  0  0  0  0  0  0  0  0  0
   11.2044   -2.7141    0.0140 O   0  0  0  0  0  0  0  0  0  0  0  0
    9.6744   -1.2768    1.1841 C   0  0  1  0  0  0  0  0  0  0  0  0
    8.3207   -1.0710    0.4847 C   0  0  0  0  0  0  0  0  0  0  0  0
    9.6043   -2.3113    2.2319 N   0  0  0  0  0  0  0  0  0  0  0  0
    9.0656   -3.6485    2.1373 C   0  0  0  0  0  0  0  0  0  0  0  0
    8.9723   -4.3251    3.1973 O   0  0  0  0  0  0  0  0  0  0  0  0
    8.6357   -4.3005    0.8348 C   0  0  1  0  0  0  0  0  0  0  0  0
    9.5057   -5.5345    0.5662 C   0  0  0  0  0  0  0  0  0  0  0  0
    7.2248   -4.7069    0.9238 N   0  0  0  0  0  0  0  0  0  0  0  0
    6.4011   -4.9496   -0.2311 C   0  0  0  0  0  0  0  0  0  0  0  0
    5.6356   -5.9514   -0.2305 O   0  0  0  0  0  0  0  0  0  0  0  0
    6.4155   -4.0299   -1.4243 C   0  0  1  0  0  0  0  0  0  0  0  0
    7.3804   -4.5385   -2.4975 C   0  0  0  0  0  0  0  0  0  0  0  0
    5.0649   -3.9166   -1.9968 N   0  0  0  0  0  0  0  0  0  0  0  0
    4.2631   -2.7373   -1.8587 C   0  0  0  0  0  0  0  0  0  0  0  0
    3.7241   -2.2387   -2.8852 O   0  0  0  0  0  0  0  0  0  0  0  0
    3.9906   -2.1328   -0.5059 C   0  0  1  0  0  0  0  0  0  0  0  0
    4.6973   -0.7721   -0.3756 C   0  0  0  0  0  0  0  0  0  0  0  0
    4.9658   -0.3226    1.3785 S   0  0  0  0  0  0  0  0  0  0  0  0
    3.4347    0.6482    1.6407 C   0  0  0  0  0  0  0  0  0  0  0  0
    2.5426   -1.9728   -0.3308 N   0  0  0  0  0  0  0  0  0  0  0  0
    1.7534   -2.8642    0.4663 C   0  0  0  0  0  0  0  0  0  0  0  0
    1.4430   -2.5248    1.6413 O   0  0  0  0  0  0  0  0  0  0  0  0
    1.2576   -4.1839   -0.0837 C   0  0  1  0  0  0  0  0  0  0  0  0
    0.9270   -4.0652   -1.5792 C   0  0  0  0  0  0  0  0  0  0  0  0
    2.2663   -5.2239    0.1433 N   0  0  0  0  0  0  0  0  0  0  0  0
    1.9856   -6.6196    0.3568 C   0  0  0  0  0  0  0  0  0  0  0  0
    2.9010   -7.3492    0.8331 O   0  0  0  0  0  0  0  0  0  0  0  0
    0.6602   -7.2589    0.0015 C   0  0  1  0  0  0  0  0  0  0  0  0
    0.8916   -8.4165   -0.9770 C   0  0  0  0  0  0  0  0  0  0  0  0
   -0.0132   -7.7417    1.2120 N   0  0  0  0  0  0  0  0  0  0  0  0
   -1.4393   -7.7356    1.3921 C   0  0  0  0  0  0  0  0  0  0  0  0
   -1.8993   -7.7055    2.5657 O   0  0  0  0  0  0  0  0  0  0  0  0
   -2.4069   -7.8598    0.2349 C   0  0  1  0  0  0  0  0  0  0  0  0
   -2.8645   -9.3209    0.0844 C   0  0  0  0  0  0  0  0  0  0  0  0
   -3.5236   -6.9162    0.3948 N   0  0  0  0  0  0  0  0  0  0  0  0
   -4.8656   -7.2974    0.7373 C   0  0  0  0  0  0  0  0  0  0  0  0
   -5.0734   -8.0606    1.7152 O   0  0  0  0  0  0  0  0  0  0  0  0
   -6.0085   -6.8479   -0.1415 C   0  0  1  0  0  0  0  0  0  0  0  0
   -6.2075   -7.8737   -1.2620 C   0  0  0  0  0  0  0  0  0  0  0  0
   -7.2506   -6.7295    0.6358 N   0  0  0  0  0  0  0  0  0  0  0  0
   -8.2244   -5.6753    0.4876 C   0  0  0  0  0  0  0  0  0  0  0  0
   -9.4183   -5.9123    0.8230 O   0  0  0  0  0  0  0  0  0  0  0  0
   -7.8970   -4.3243   -0.1212 C   0  0  1  0  0  0  0  0  0  0  0  0
   -8.1269   -4.3936   -1.6383 C   0  0  0  0  0  0  0  0  0  0  0  0
   -8.7322   -3.2864    0.5078 N   0  0  0  0  0  0  0  0  0  0  0  0
   -9.1427   -2.0675   -0.1334 C   0  0  0  0  0  0  0  0  0  0  0  0
   -8.3430   -1.4499   -0.8845 O   0  0  0  0  0  0  0  0  0  0  0  0
  -10.5145   -1.5018    0.1167 C   0  0  1  0  0  0  0  0  0  0  0  0
  -11.5810   -2.5841   -0.0656 C   0  0  0  0  0  0  0  0  0  0  0  0
  -10.5885   -0.9605    1.4763 N   0  0  0  0  0  0  0  0  0  0  0  0
  -10.8951    0.4059    1.8088 C   0  0  0  0  0  0  0  0  0  0  0  0
  -11.2862    0.6609    2.9802 O   0  0  0  0  0  0  0  0  0  0  0  0
  -10.7563    1.5388    0.8172 C   0  0  1  0  0  0  0  0  0  0  0  0
  -12.1181    1.8809    0.2149 C   0  0  0  0  0  0  0  0  0  0  0  0
  -10.2020    2.7181    1.4834 N   0  0  0  0  0  0  0  0  0  0  0  0
   -9.0106    3.3469    1.0065 C   0  0  0  0  0  0  0  0  0  0  0  0
   -7.9400    3.2016    1.6527 O   0  0  0  0  0  0  0  0  0  0  0  0
   -9.0700    4.2043   -0.2340 C   0  0  1  0  0  0  0  0  0  0  0  0
   -9.9149    5.4640    0.0067 C   0  0  0  0  0  0  0  0  0  0  0  0
   -7.7353    4.5610   -0.7339 N   0  0  0  0  0  0  0  0  0  0  0  0
   -6.9064    5.5633   -0.1231 C   0  0  0  0  0  0  0  0  0  0  0  0
   -6.7862    5.5930    1.1345 O   0  0  0  0  0  0  0  0  0  0  0  0
   -6.1667    6.6032   -0.9346 C   0  0  1  0  0  0  0  0  0  0  0  0
   -6.3857    6.4734   -2.4482 C   0  0  0  0  0  0  0  0  0  0  0  0
   -6.6032    7.9319   -0.4934 N   0  0  0  0  0  0  0  0  0  0  0  0
   -5.8702    8.7639    0.4227 C   0  0  0  0  0  0  0  0  0  0  0  0
   -6.5008    9.6387    1.0816 O   0  0  0  0  0  0  0  0  0  0  0  0
   -4.3751    8.6131    0.6089 C   0  0  1  0  0  0  0  0  0  0  0  0
   -3.7551    9.8357    1.2981 C   0  0  0  0  0  0  0  0  0  0  0  0
   -4.0814    7.4115    1.3999 N   0  0  0  0  0  0  0  0  0  0  0  0
   -2.8752    6.6270    1.3026 C   0  0  0  0  0  0  0  0  0  0  0  0
   -2.8071    5.5525    1.9599 O   0  0  0  0  0  0  0  0  0  0  0  0
   -0.7051    9.9218   -0.1499 H   0  0  0  0  0  0  0  0  0  0  0  0
    1.0620   10.2021   -0.0123 H   0  0  0  0  0  0  0  0  0  0  0  0
    0.4603    8.7530   -0.8945 H   0  0  0  0  0  0  0  0  0  0  0  0
   -0.5030    7.0148    2.3865 H   0  0  0  0  0  0  0  0  0  0  0  0
   -1.9233    7.9417   -0.1088 H   0  0  0  0  0  0  0  0  0  0  0  0
   -1.9040    5.5792   -1.0180 H   0  0  0  0  0  0  0  0  0  0  0  0
   -0.3668    6.5025   -1.0947 H   0  0  0  0  0  0  0  0  0  0  0  0
    0.8302    4.7381   -1.7284 H   0  0  0  0  0  0  0  0  0  0  0  0
    0.1245    3.1382   -1.3550 H   0  0  0  0  0  0  0  0  0  0  0  0
    1.2641    1.6856    0.3880 H   0  0  0  0  0  0  0  0  0  0  0  0
    5.4117    2.4851    1.1809 H   0  0  0  0  0  0  0  0  0  0  0  0
    3.0763    5.2763   -1.1095 H   0  0  0  0  0  0  0  0  0  0  0  0
    5.2825    5.8393   -0.5984 H   0  0  0  0  0  0  0  0  0  0  0  0
    5.9678    5.1444    0.8811 H   0  0  0  0  0  0  0  0  0  0  0  0
    7.5765    3.6660    1.1422 H   0  0  0  0  0  0  0  0  0  0  0  0
    7.6288    2.2364    0.0682 H   0  0  0  0  0  0  0  0  0  0  0  0
    9.5733    3.2495   -1.1494 H   0  0  0  0  0  0  0  0  0  0  0  0
   10.6107    5.2451   -1.8893 H   0  0  0  0  0  0  0  0  0  0  0  0
   10.5453    6.7453   -0.8991 H   0  0  0  0  0  0  0  0  0  0  0  0
   10.0991    3.0114    1.8408 H   0  0  0  0  0  0  0  0  0  0  0  0
    9.8112    0.7337   -0.9240 H   0  0  0  0  0  0  0  0  0  0  0  0
   12.4054    2.0682   -1.8100 H   0  0  0  0  0  0  0  0  0  0  0  0
   11.8294    0.6299   -2.7266 H   0  0  0  0  0  0  0  0  0  0  0  0
   10.7753    2.0577   -2.5855 H   0  0  0  0  0  0  0  0  0  0  0  0
   12.4520   -0.6644   -0.8188 H   0  0  0  0  0  0  0  0  0  0  0  0
    9.9112   -0.3247    1.6981 H   0  0  0  0  0  0  0  0  0  0  0  0
    8.0235   -0.0028    0.5375 H   0  0  0  0  0  0  0  0  0  0  0  0
    8.3656   -1.3534   -0.5904 H   0  0  0  0  0  0  0  0  0  0  0  0
    7.5214   -1.6575    0.9826 H   0  0  0  0  0  0  0  0  0  0  0  0
    9.9397   -2.0216    3.1781 H   0  0  0  0  0  0  0  0  0  0  0  0
    8.7691   -3.6052   -0.0099 H   0  0  0  0  0  0  0  0  0  0  0  0
    9.1825   -6.0437   -0.3681 H   0  0  0  0  0  0  0  0  0  0  0  0
    9.4244   -6.2651    1.4006 H   0  0  0  0  0  0  0  0  0  0  0  0
   10.5706   -5.2395    0.4499 H   0  0  0  0  0  0  0  0  0  0  0  0
    6.9123   -5.1673    1.8100 H   0  0  0  0  0  0  0  0  0  0  0  0
    6.7590   -3.0291   -1.1010 H   0  0  0  0  0  0  0  0  0  0  0  0
    7.3960   -3.8306   -3.3522 H   0  0  0  0  0  0  0  0  0  0  0  0
    8.4121   -4.6184   -2.1045 H   0  0  0  0  0  0  0  0  0  0  0  0
    7.0631   -5.5390   -2.8637 H   0  0  0  0  0  0  0  0  0  0  0  0
    4.7527   -4.6304   -2.6912 H   0  0  0  0  0  0  0  0  0  0  0  0
    4.3842   -2.8235    0.2760 H   0  0  0  0  0  0  0  0  0  0  0  0
    5.7024   -0.8331   -0.8404 H   0  0  0  0  0  0  0  0  0  0  0  0
    4.1412    0.0169   -0.9238 H   0  0  0  0  0  0  0  0  0  0  0  0
    2.5649   -0.0076    1.4408 H   0  0  0  0  0  0  0  0  0  0  0  0
    3.3891    0.9274    2.7106 H   0  0  0  0  0  0  0  0  0  0  0  0
    2.0401   -1.2332   -0.8727 H   0  0  0  0  0  0  0  0  0  0  0  0
    0.3238   -4.4430    0.4659 H   0  0  0  0  0  0  0  0  0  0  0  0
    0.2417   -3.2083   -1.7514 H   0  0  0  0  0  0  0  0  0  0  0  0
    0.4363   -4.9778   -1.9631 H   0  0  0  0  0  0  0  0  0  0  0  0
    1.8482   -3.9202   -2.1754 H   0  0  0  0  0  0  0  0  0  0  0  0
    3.2616   -4.9267    0.2817 H   0  0  0  0  0  0  0  0  0  0  0  0
    0.0095   -6.5188   -0.4926 H   0  0  0  0  0  0  0  0  0  0  0  0
    1.5325   -9.1983   -0.5154 H   0  0  0  0  0  0  0  0  0  0  0  0
   -0.0663   -8.8887   -1.2700 H   0  0  0  0  0  0  0  0  0  0  0  0
    1.3855   -8.0399   -1.8999 H   0  0  0  0  0  0  0  0  0  0  0  0
    0.5737   -7.9991    2.0379 H   0  0  0  0  0  0  0  0  0  0  0  0
   -1.9115   -7.5987   -0.7189 H   0  0  0  0  0  0  0  0  0  0  0  0
   -3.2772   -9.7149    1.0361 H   0  0  0  0  0  0  0  0  0  0  0  0
   -3.6364   -9.4044   -0.7098 H   0  0  0  0  0  0  0  0  0  0  0  0
   -2.0031   -9.9604   -0.2026 H   0  0  0  0  0  0  0  0  0  0  0  0
   -3.3583   -5.9210    0.1112 H   0  0  0  0  0  0  0  0  0  0  0  0
   -5.7394   -5.8780   -0.6042 H   0  0  0  0  0  0  0  0  0  0  0  0
   -7.0713   -7.5846   -1.8964 H   0  0  0  0  0  0  0  0  0  0  0  0
   -5.3052   -7.9125   -1.9062 H   0  0  0  0  0  0  0  0  0  0  0  0
   -6.3997   -8.8832   -0.8394 H   0  0  0  0  0  0  0  0  0  0  0  0
   -7.5575   -7.5671    1.1828 H   0  0  0  0  0  0  0  0  0  0  0  0
   -6.8356   -4.0704    0.0813 H   0  0  0  0  0  0  0  0  0  0  0  0
   -7.6420   -5.2910   -2.0750 H   0  0  0  0  0  0  0  0  0  0  0  0
   -7.6827   -3.5108   -2.1400 H   0  0  0  0  0  0  0  0  0  0  0  0
   -9.2135   -4.4342   -1.8639 H   0  0  0  0  0  0  0  0  0  0  0  0
   -9.0737   -3.4436    1.4831 H   0  0  0  0  0  0  0  0  0  0  0  0
  -10.7304   -0.7240   -0.6432 H   0  0  0  0  0  0  0  0  0  0  0  0
  -11.5232   -3.0067   -1.0922 H   0  0  0  0  0  0  0  0  0  0  0  0
  -11.4472   -3.4049    0.6731 H   0  0  0  0  0  0  0  0  0  0  0  0
  -12.5923   -2.1448    0.0783 H   0  0  0  0  0  0  0  0  0  0  0  0
  -10.5101   -1.6308    2.2735 H   0  0  0  0  0  0  0  0  0  0  0  0
  -10.0665    1.2447   -0.0040 H   0  0  0  0  0  0  0  0  0  0  0  0
  -12.5487    0.9946   -0.2987 H   0  0  0  0  0  0  0  0  0  0  0  0
  -12.8214    2.2127    1.0101 H   0  0  0  0  0  0  0  0  0  0  0  0
  -12.0097    2.6985   -0.5279 H   0  0  0  0  0  0  0  0  0  0  0  0
  -10.6253    3.0653    2.3766 H   0  0  0  0  0  0  0  0  0  0  0  0
   -9.5791    3.6082   -1.0195 H   0  0  0  0  0  0  0  0  0  0  0  0
   -9.9131    6.1008   -0.9046 H   0  0  0  0  0  0  0  0  0  0  0  0
  -10.9661    5.1825    0.2303 H   0  0  0  0  0  0  0  0  0  0  0  0
   -9.5182    6.0524    0.8589 H   0  0  0  0  0  0  0  0  0  0  0  0
   -7.4426    4.1474   -1.6486 H   0  0  0  0  0  0  0  0  0  0  0  0
   -5.0817    6.4588   -0.7544 H   0  0  0  0  0  0  0  0  0  0  0  0
   -5.9550    5.5197   -2.8148 H   0  0  0  0  0  0  0  0  0  0  0  0
   -5.8598    7.3023   -2.9676 H   0  0  0  0  0  0  0  0  0  0  0  0
   -7.4670    6.5192   -2.6963 H   0  0  0  0  0  0  0  0  0  0  0  0
   -7.5820    8.2148   -0.7174 H   0  0  0  0  0  0  0  0  0  0  0  0
   -3.9526    8.5256   -0.4115 H   0  0  0  0  0  0  0  0  0  0  0  0
   -4.1708    9.9583    2.3182 H   0  0  0  0  0  0  0  0  0  0  0  0
   -2.6544    9.7187    1.3887 H   0  0  0  0  0  0  0  0  0  0  0  0
   -3.9577   10.7568    0.7037 H   0  0  0  0  0  0  0  0  0  0  0  0
   -4.7854    7.1101    2.1128 H   0  0  0  0  0  0  0  0  0  0  0  0
  1  2  1  0
  2  3  2  0
  2  4  1  0
  4  5  1  0
  5  6  1  0
  6  7  1  0
  7  8  1  0
  8  9  1  0
  9 10  2  0
 10 11  1  0
 11 12  2  0
 12 13  1  0
 13 14  2  0
 13 15  1  0
 15 16  1  0
 16 17  1  0
 17 18  1  0
 18 19  1  0
 19 20  1  0
 19 21  2  0
 18 22  1  0
 22 23  1  0
 23 24  2  0
 23 25  1  0
 25 26  1  0
 25 27  1  0
 27 28  1  0
 28 29  2  0
 28 30  1  0
 30 31  1  0
 30 32  1  0
 32 33  1  0
 33 34  2  0
 33 35  1  0
 35 36  1  0
 35 37  1  0
 37 38  1  0
 38 39  2  0
 38 40  1  0
 40 41  1  0
 40 42  1  0
 42 43  1  0
 43 44  2  0
 43 45  1  0
 45 46  1  0
 46 47  1  0
 47 48  1  0
 45 49  1  0
 49 50  1  0
 50 51  2  0
 50 52  1  0
 52 53  1  0
 52 54  1  0
 54 55  1  0
 55 56  2  0
 55 57  1  0
 57 58  1  0
 57 59  1  0
 59 60  1  0
 60 61  2  0
 60 62  1  0
 62 63  1  0
 62 64  1  0
 64 65  1  0
 65 66  2  0
 65 67  1  0
 67 68  1  0
 67 69  1  0
 69 70  1  0
 70 71  2  0
 70 72  1  0
 72 73  1  0
 72 74  1  0
 74 75  1  0
 75 76  2  0
 75 77  1  0
 77 78  1  0
 77 79  1  0
 79 80  1  0
 80 81  2  0
 80 82  1  0
 82 83  1  0
 82 84  1  0
 84 85  1  0
 85 86  2  0
 85 87  1  0
 87 88  1  0
 87 89  1  0
 89 90  1  0
 90 91  2  0
 90 92  1  0
 92 93  1  0
 92 94  1  0
 94 95  1  0
 95 96  2  0
 95 97  1  0
 97 98  1  0
 97 99  1  0
 99100  1  0
100101  2  0
100  5  1  0
 14  9  1  0
 48 11  1  0
  1102  1  0
  1103  1  0
  1104  1  0
  4105  1  0
  5106  1  6
  6107  1  0
  6108  1  0
  8109  1  0
  8110  1  0
 10111  1  0
 12112  1  0
 14113  1  0
 15114  1  0
 15115  1  0
 17116  1  0
 17117  1  0
 18118  1  6
 20119  1  0
 20120  1  0
 22121  1  0
 25122  1  6
 26123  1  0
 26124  1  0
 26125  1  0
 27126  1  0
 30127  1  1
 31128  1  0
 31129  1  0
 31130  1  0
 32131  1  0
 35132  1  6
 36133  1  0
 36134  1  0
 36135  1  0
 37136  1  0
 40137  1  1
 41138  1  0
 41139  1  0
 41140  1  0
 42141  1  0
 45142  1  1
 46143  1  0
 46144  1  0
 48145  1  0
 48146  1  0
 49147  1  0
 52148  1  1
 53149  1  0
 53150  1  0
 53151  1  0
 54152  1  0
 57153  1  6
 58154  1  0
 58155  1  0
 58156  1  0
 59157  1  0
 62158  1  6
 63159  1  0
 63160  1  0
 63161  1  0
 64162  1  0
 67163  1  6
 68164  1  0
 68165  1  0
 68166  1  0
 69167  1  0
 72168  1  6
 73169  1  0
 73170  1  0
 73171  1  0
 74172  1  0
 77173  1  6
 78174  1  0
 78175  1  0
 78176  1  0
 79177  1  0
 82178  1  6
 83179  1  0
 83180  1  0
 83181  1  0
 84182  1  0
 87183  1  6
 88184  1  0
 88185  1  0
 88186  1  0
 89187  1  0
 92188  1  6
 93189  1  0
 93190  1  0
 93191  1  0
 94192  1  0
 97193  1  6
 98194  1  0
 98195  1  0
 98196  1  0
 99197  1  0
M  END
