
     RDKit          3D

237239  0  0  0  0  0  0  0  0999 V2000
   -2.6982  -10.0352    0.4195 C   0  0  0  0  0  0  0  0  0  0  0  0
   -2.3409   -9.4376   -0.8962 C   0  0  0  0  0  0  0  0  0  0  0  0
   -1.2230   -9.6844   -1.4308 O   0  0  0  0  0  0  0  0  0  0  0  0
   -3.2827   -8.6019   -1.5694 N   0  0  0  0  0  0  0  0  0  0  0  0
   -3.0928   -7.1549   -1.7333 C   0  0  2  0  0  0  0  0  0  0  0  0
   -2.5485   -6.4534   -0.4641 C   0  0  0  0  0  0  0  0  0  0  0  0
   -0.7486   -6.7245   -0.2255 S   0  0  0  0  0  0  0  0  0  0  0  0
   -0.1560   -5.4987   -1.4467 C   0  0  0  0  0  0  0  0  0  0  0  0
    0.3257   -4.2543   -0.7531 C   0  0  0  0  0  0  0  0  0  0  0  0
    1.5104   -4.2696   -0.0010 C   0  0  0  0  0  0  0  0  0  0  0  0
    1.9970   -3.0946    0.5937 C   0  0  0  0  0  0  0  0  0  0  0  0
    1.2801   -1.8999    0.4280 C   0  0  0  0  0  0  0  0  0  0  0  0
    0.0921   -1.8681   -0.3170 C   0  0  0  0  0  0  0  0  0  0  0  0
   -0.3842   -3.0564   -0.8893 C   0  0  0  0  0  0  0  0  0  0  0  0
   -0.6616   -0.5814   -0.4880 C   0  0  0  0  0  0  0  0  0  0  0  0
    0.3458    0.6215   -1.4300 S   0  0  0  0  0  0  0  0  0  0  0  0
   -0.7071    2.0735   -1.0515 C   0  0  0  0  0  0  0  0  0  0  0  0
   -0.1211    3.0430    0.0123 C   0  0  1  0  0  0  0  0  0  0  0  0
   -1.2135    3.5911    0.8231 N   0  0  0  0  0  0  0  0  0  0  0  0
   -1.0329    4.6963    1.7185 C   0  0  0  0  0  0  0  0  0  0  0  0
   -1.1635    4.4924    2.9606 O   0  0  0  0  0  0  0  0  0  0  0  0
   -0.9140    6.1224    1.2397 C   0  0  1  0  0  0  0  0  0  0  0  0
    0.2486    6.8295    1.9442 C   0  0  0  0  0  0  0  0  0  0  0  0
   -0.7221    6.2011   -0.2174 N   0  0  0  0  0  0  0  0  0  0  0  0
   -1.6990    6.6636   -1.1708 C   0  0  0  0  0  0  0  0  0  0  0  0
   -1.2939    7.0445   -2.3050 O   0  0  0  0  0  0  0  0  0  0  0  0
   -3.1825    6.7801   -0.8711 C   0  0  1  0  0  0  0  0  0  0  0  0
   -3.7514    5.4809   -0.2850 C   0  0  0  0  0  0  0  0  0  0  0  0
   -3.4333    7.9360    0.0021 N   0  0  0  0  0  0  0  0  0  0  0  0
   -4.6557    8.6866   -0.0449 C   0  0  0  0  0  0  0  0  0  0  0  0
   -4.6085    9.9088   -0.3591 O   0  0  0  0  0  0  0  0  0  0  0  0
   -5.9716    8.0951    0.3971 C   0  0  1  0  0  0  0  0  0  0  0  0
   -6.3895    8.7351    1.7224 C   0  0  0  0  0  0  0  0  0  0  0  0
   -6.9916    8.3091   -0.6447 N   0  0  0  0  0  0  0  0  0  0  0  0
   -8.2948    7.6963   -0.6959 C   0  0  0  0  0  0  0  0  0  0  0  0
   -9.0721    8.0318   -1.6347 O   0  0  0  0  0  0  0  0  0  0  0  0
   -8.8069    6.7287    0.3521 C   0  0  1  0  0  0  0  0  0  0  0  0
   -9.8013    7.4561    1.2609 C   0  0  0  0  0  0  0  0  0  0  0  0
   -9.4770    5.5851   -0.2875 N   0  0  0  0  0  0  0  0  0  0  0  0
   -9.9783    4.4722    0.4721 C   0  0  0  0  0  0  0  0  0  0  0  0
   -9.3846    4.1067    1.5227 O   0  0  0  0  0  0  0  0  0  0  0  0
  -11.2290    3.7512    0.0310 C   0  0  1  0  0  0  0  0  0  0  0  0
  -12.3770    4.7536   -0.1582 C   0  0  0  0  0  0  0  0  0  0  0  0
  -10.9719    3.0311   -1.2161 N   0  0  0  0  0  0  0  0  0  0  0  0
  -10.9128    1.6005   -1.3040 C   0  0  0  0  0  0  0  0  0  0  0  0
   -9.9438    1.0800   -1.9248 O   0  0  0  0  0  0  0  0  0  0  0  0
  -11.9695    0.7055   -0.6808 C   0  0  1  0  0  0  0  0  0  0  0  0
  -13.3797    1.2798   -0.8800 C   0  0  0  0  0  0  0  0  0  0  0  0
  -11.9093   -0.6368   -1.2814 N   0  0  0  0  0  0  0  0  0  0  0  0
  -12.4129   -1.8359   -0.6664 C   0  0  0  0  0  0  0  0  0  0  0  0
  -12.4622   -2.8865   -1.3664 O   0  0  0  0  0  0  0  0  0  0  0  0
  -12.8781   -1.8742    0.7793 C   0  0  1  0  0  0  0  0  0  0  0  0
  -13.5420   -3.2141    1.1471 C   0  0  0  0  0  0  0  0  0  0  0  0
  -11.7955   -1.5572    1.7286 N   0  0  0  0  0  0  0  0  0  0  0  0
  -10.6597   -2.3879    2.0365 C   0  0  0  0  0  0  0  0  0  0  0  0
  -10.2052   -2.3689    3.2163 O   0  0  0  0  0  0  0  0  0  0  0  0
   -9.9172   -3.1600    0.9758 C   0  0  1  0  0  0  0  0  0  0  0  0
   -8.9019   -2.2537    0.2834 C   0  0  0  0  0  0  0  0  0  0  0  0
   -9.2343   -4.3182    1.5570 N   0  0  0  0  0  0  0  0  0  0  0  0
   -9.8549   -5.6068    1.5541 C   0  0  0  0  0  0  0  0  0  0  0  0
  -10.5533   -5.9545    2.5406 O   0  0  0  0  0  0  0  0  0  0  0  0
   -9.6208   -6.5893    0.4349 C   0  0  1  0  0  0  0  0  0  0  0  0
   -9.7576   -5.9558   -0.9564 C   0  0  0  0  0  0  0  0  0  0  0  0
   -8.3314   -7.2741    0.6056 N   0  0  0  0  0  0  0  0  0  0  0  0
   -7.0769   -6.7534    0.1262 C   0  0  0  0  0  0  0  0  0  0  0  0
   -6.8205   -5.5280    0.2635 O   0  0  0  0  0  0  0  0  0  0  0  0
   -6.0543   -7.6385   -0.5588 C   0  0  1  0  0  0  0  0  0  0  0  0
   -6.5720   -9.0647   -0.7988 C   0  0  0  0  0  0  0  0  0  0  0  0
   -5.6895   -7.0345   -1.8465 N   0  0  0  0  0  0  0  0  0  0  0  0
   -4.3930   -6.5009   -2.1654 C   0  0  0  0  0  0  0  0  0  0  0  0
   -4.3295   -5.4554   -2.8740 O   0  0  0  0  0  0  0  0  0  0  0  0
    0.9156    2.4222    0.9323 C   0  0  0  0  0  0  0  0  0  0  0  0
    0.5395    1.5485    1.7580 O   0  0  0  0  0  0  0  0  0  0  0  0
    2.3118    2.7958    0.9124 N   0  0  0  0  0  0  0  0  0  0  0  0
    2.8875    3.8746    0.0944 C   0  0  2  0  0  0  0  0  0  0  0  0
    3.1570    3.3679   -1.3269 C   0  0  0  0  0  0  0  0  0  0  0  0
    4.1275    4.4400    0.7485 C   0  0  0  0  0  0  0  0  0  0  0  0
    4.0933    4.7580    1.9685 O   0  0  0  0  0  0  0  0  0  0  0  0
    5.2677    4.8001   -0.0341 N   0  0  0  0  0  0  0  0  0  0  0  0
    5.6400    6.2036   -0.2143 C   0  0  2  0  0  0  0  0  0  0  0  0
    5.9573    6.4793   -1.6825 C   0  0  0  0  0  0  0  0  0  0  0  0
    6.8079    6.5767    0.6552 C   0  0  0  0  0  0  0  0  0  0  0  0
    6.8646    7.7394    1.1373 O   0  0  0  0  0  0  0  0  0  0  0  0
    7.8584    5.6333    0.9237 N   0  0  0  0  0  0  0  0  0  0  0  0
    9.2506    5.7687    0.4672 C   0  0  2  0  0  0  0  0  0  0  0  0
    9.5745    7.1952    0.0056 C   0  0  0  0  0  0  0  0  0  0  0  0
    9.5341    4.7850   -0.6462 C   0  0  0  0  0  0  0  0  0  0  0  0
    8.5901    4.1105   -1.1459 O   0  0  0  0  0  0  0  0  0  0  0  0
   10.8437    4.6565   -1.2131 N   0  0  0  0  0  0  0  0  0  0  0  0
   12.0142    4.2373   -0.4319 C   0  0  2  0  0  0  0  0  0  0  0  0
   12.7392    5.4445    0.1647 C   0  0  0  0  0  0  0  0  0  0  0  0
   12.9767    3.4742   -1.3231 C   0  0  0  0  0  0  0  0  0  0  0  0
   13.2959    3.9581   -2.4399 O   0  0  0  0  0  0  0  0  0  0  0  0
   13.5317    2.2073   -0.9411 N   0  0  0  0  0  0  0  0  0  0  0  0
   13.8055    1.8243    0.4461 C   0  0  2  0  0  0  0  0  0  0  0  0
   15.2428    1.2977    0.5630 C   0  0  0  0  0  0  0  0  0  0  0  0
   12.8196    0.7823    0.8945 C   0  0  0  0  0  0  0  0  0  0  0  0
   12.1736    0.9465    1.9661 O   0  0  0  0  0  0  0  0  0  0  0  0
   12.5982   -0.3931    0.1154 N   0  0  0  0  0  0  0  0  0  0  0  0
   13.3100   -1.6367    0.4000 C   0  0  2  0  0  0  0  0  0  0  0  0
   13.8019   -2.2567   -0.9111 C   0  0  0  0  0  0  0  0  0  0  0  0
   12.4218   -2.5689    1.1781 C   0  0  0  0  0  0  0  0  0  0  0  0
   12.7395   -2.8745    2.3617 O   0  0  0  0  0  0  0  0  0  0  0  0
   11.1880   -3.0540    0.6398 N   0  0  0  0  0  0  0  0  0  0  0  0
   11.1466   -4.2673   -0.1738 C   0  0  2  0  0  0  0  0  0  0  0  0
   10.0276   -4.1626   -1.2141 C   0  0  0  0  0  0  0  0  0  0  0  0
   11.0318   -5.4819    0.7228 C   0  0  0  0  0  0  0  0  0  0  0  0
   11.9992   -5.7754    1.4707 O   0  0  0  0  0  0  0  0  0  0  0  0
    9.8883   -6.3383    0.7018 N   0  0  0  0  0  0  0  0  0  0  0  0
    8.6595   -6.0272    1.4465 C   0  0  2  0  0  0  0  0  0  0  0  0
    8.9647   -5.7864    2.9319 C   0  0  0  0  0  0  0  0  0  0  0  0
    7.6774   -7.1704    1.2958 C   0  0  0  0  0  0  0  0  0  0  0  0
    7.9592   -8.2773    1.8324 O   0  0  0  0  0  0  0  0  0  0  0  0
    6.4719   -7.0802    0.5147 N   0  0  0  0  0  0  0  0  0  0  0  0
    5.9513   -5.8617   -0.1153 C   0  0  1  0  0  0  0  0  0  0  0  0
    5.0133   -6.2350   -1.2432 C   0  0  0  0  0  0  0  0  0  0  0  0
    5.3216   -5.8759   -2.5907 N   0  0  0  0  0  0  0  0  0  0  0  0
    3.9508   -6.8710   -0.9987 O   0  0  0  0  0  0  0  0  0  0  0  0
    5.2206   -5.0141    0.9375 C   0  0  0  0  0  0  0  0  0  0  0  0
    4.6893   -3.4144    0.2200 S   0  0  0  0  0  0  0  0  0  0  0  0
    3.2916   -3.1062    1.3635 C   0  0  0  0  0  0  0  0  0  0  0  0
   -3.6337  -10.6243    0.3135 H   0  0  0  0  0  0  0  0  0  0  0  0
   -1.8874  -10.7051    0.7836 H   0  0  0  0  0  0  0  0  0  0  0  0
   -2.8608   -9.2269    1.1625 H   0  0  0  0  0  0  0  0  0  0  0  0
   -3.8278   -9.0836   -2.3227 H   0  0  0  0  0  0  0  0  0  0  0  0
   -2.3687   -7.0106   -2.5615 H   0  0  0  0  0  0  0  0  0  0  0  0
   -3.0804   -6.8205    0.4340 H   0  0  0  0  0  0  0  0  0  0  0  0
   -2.7325   -5.3574   -0.5139 H   0  0  0  0  0  0  0  0  0  0  0  0
   -0.9439   -5.2535   -2.1884 H   0  0  0  0  0  0  0  0  0  0  0  0
    0.6926   -5.9395   -2.0121 H   0  0  0  0  0  0  0  0  0  0  0  0
    2.0628   -5.1942    0.1082 H   0  0  0  0  0  0  0  0  0  0  0  0
    1.6502   -0.9822    0.8753 H   0  0  0  0  0  0  0  0  0  0  0  0
   -1.3037   -3.0391   -1.4598 H   0  0  0  0  0  0  0  0  0  0  0  0
   -1.6149   -0.7534   -1.0304 H   0  0  0  0  0  0  0  0  0  0  0  0
   -0.9172   -0.1795    0.5128 H   0  0  0  0  0  0  0  0  0  0  0  0
   -1.7347    1.7485   -0.7839 H   0  0  0  0  0  0  0  0  0  0  0  0
   -0.8215    2.6356   -2.0011 H   0  0  0  0  0  0  0  0  0  0  0  0
    0.3311    3.8638   -0.5588 H   0  0  0  0  0  0  0  0  0  0  0  0
   -1.9557    2.9218    1.1273 H   0  0  0  0  0  0  0  0  0  0  0  0
   -1.8352    6.6512    1.5395 H   0  0  0  0  0  0  0  0  0  0  0  0
    0.0777    6.8479    3.0417 H   0  0  0  0  0  0  0  0  0  0  0  0
    1.2047    6.3014    1.7426 H   0  0  0  0  0  0  0  0  0  0  0  0
    0.3267    7.8795    1.5884 H   0  0  0  0  0  0  0  0  0  0  0  0
    0.2512    6.0784   -0.5838 H   0  0  0  0  0  0  0  0  0  0  0  0
   -3.7052    6.9533   -1.8394 H   0  0  0  0  0  0  0  0  0  0  0  0
   -4.8154    5.3634   -0.5780 H   0  0  0  0  0  0  0  0  0  0  0  0
   -3.2158    4.5947   -0.6846 H   0  0  0  0  0  0  0  0  0  0  0  0
   -3.6967    5.4698    0.8251 H   0  0  0  0  0  0  0  0  0  0  0  0
   -2.6123    8.4631    0.3731 H   0  0  0  0  0  0  0  0  0  0  0  0
   -5.8375    7.0068    0.5538 H   0  0  0  0  0  0  0  0  0  0  0  0
   -7.1378    8.1087    2.2483 H   0  0  0  0  0  0  0  0  0  0  0  0
   -5.5168    8.8205    2.4081 H   0  0  0  0  0  0  0  0  0  0  0  0
   -6.8166    9.7494    1.5541 H   0  0  0  0  0  0  0  0  0  0  0  0
   -6.7698    8.9623   -1.4311 H   0  0  0  0  0  0  0  0  0  0  0  0
   -7.9664    6.3395    0.9581 H   0  0  0  0  0  0  0  0  0  0  0  0
  -10.1025    6.8050    2.1104 H   0  0  0  0  0  0  0  0  0  0  0  0
  -10.7170    7.7431    0.6927 H   0  0  0  0  0  0  0  0  0  0  0  0
   -9.3567    8.3862    1.6825 H   0  0  0  0  0  0  0  0  0  0  0  0
   -9.7470    5.6508   -1.2946 H   0  0  0  0  0  0  0  0  0  0  0  0
  -11.5268    3.0352    0.8282 H   0  0  0  0  0  0  0  0  0  0  0  0
  -13.3113    4.2367   -0.4627 H   0  0  0  0  0  0  0  0  0  0  0  0
  -12.5672    5.2985    0.7957 H   0  0  0  0  0  0  0  0  0  0  0  0
  -12.1299    5.4922   -0.9506 H   0  0  0  0  0  0  0  0  0  0  0  0
  -10.6118    3.5731   -2.0382 H   0  0  0  0  0  0  0  0  0  0  0  0
  -11.7488    0.6391    0.4018 H   0  0  0  0  0  0  0  0  0  0  0  0
  -14.1511    0.4848   -0.7969 H   0  0  0  0  0  0  0  0  0  0  0  0
  -13.4826    1.7536   -1.8783 H   0  0  0  0  0  0  0  0  0  0  0  0
  -13.5994    2.0227   -0.0858 H   0  0  0  0  0  0  0  0  0  0  0  0
  -11.6871   -0.7062   -2.2999 H   0  0  0  0  0  0  0  0  0  0  0  0
  -13.6681   -1.1068    0.8876 H   0  0  0  0  0  0  0  0  0  0  0  0
  -13.9276   -3.1681    2.1870 H   0  0  0  0  0  0  0  0  0  0  0  0
  -14.3990   -3.4098    0.4681 H   0  0  0  0  0  0  0  0  0  0  0  0
  -12.8180   -4.0503    1.0763 H   0  0  0  0  0  0  0  0  0  0  0  0
  -11.9738   -0.7545    2.3777 H   0  0  0  0  0  0  0  0  0  0  0  0
  -10.6286   -3.5190    0.2120 H   0  0  0  0  0  0  0  0  0  0  0  0
   -8.4403   -2.7851   -0.5759 H   0  0  0  0  0  0  0  0  0  0  0  0
   -9.3984   -1.3343   -0.1002 H   0  0  0  0  0  0  0  0  0  0  0  0
   -8.0999   -1.9523    0.9974 H   0  0  0  0  0  0  0  0  0  0  0  0
   -8.4683   -4.1542    2.2475 H   0  0  0  0  0  0  0  0  0  0  0  0
  -10.4202   -7.3591    0.5016 H   0  0  0  0  0  0  0  0  0  0  0  0
   -9.5453   -6.7199   -1.7376 H   0  0  0  0  0  0  0  0  0  0  0  0
   -9.0472   -5.1151   -1.0935 H   0  0  0  0  0  0  0  0  0  0  0  0
  -10.7945   -5.5833   -1.1088 H   0  0  0  0  0  0  0  0  0  0  0  0
   -8.3557   -8.2282    1.0249 H   0  0  0  0  0  0  0  0  0  0  0  0
   -5.1659   -7.7064    0.1033 H   0  0  0  0  0  0  0  0  0  0  0  0
   -7.5350   -9.0486   -1.3543 H   0  0  0  0  0  0  0  0  0  0  0  0
   -5.8417   -9.6570   -1.3826 H   0  0  0  0  0  0  0  0  0  0  0  0
   -6.7111   -9.5851    0.1676 H   0  0  0  0  0  0  0  0  0  0  0  0
   -6.4678   -6.8153   -2.5091 H   0  0  0  0  0  0  0  0  0  0  0  0
    2.9461    2.2596    1.5435 H   0  0  0  0  0  0  0  0  0  0  0  0
    2.1816    4.7287    0.0533 H   0  0  0  0  0  0  0  0  0  0  0  0
    2.2199    2.9912   -1.7879 H   0  0  0  0  0  0  0  0  0  0  0  0
    3.8977    2.5360   -1.3133 H   0  0  0  0  0  0  0  0  0  0  0  0
    3.5409    4.1893   -1.9667 H   0  0  0  0  0  0  0  0  0  0  0  0
    5.8324    4.0439   -0.4858 H   0  0  0  0  0  0  0  0  0  0  0  0
    4.7729    6.8489    0.0627 H   0  0  0  0  0  0  0  0  0  0  0  0
    6.1597    7.5608   -1.8320 H   0  0  0  0  0  0  0  0  0  0  0  0
    6.8477    5.9022   -2.0096 H   0  0  0  0  0  0  0  0  0  0  0  0
    5.0953    6.1958   -2.3221 H   0  0  0  0  0  0  0  0  0  0  0  0
    7.5981    4.7543    1.4404 H   0  0  0  0  0  0  0  0  0  0  0  0
    9.9064    5.5205    1.3268 H   0  0  0  0  0  0  0  0  0  0  0  0
   10.6369    7.2812   -0.3034 H   0  0  0  0  0  0  0  0  0  0  0  0
    8.9403    7.4847   -0.8632 H   0  0  0  0  0  0  0  0  0  0  0  0
    9.4147    7.9179    0.8331 H   0  0  0  0  0  0  0  0  0  0  0  0
   10.8549    4.5257   -2.2519 H   0  0  0  0  0  0  0  0  0  0  0  0
   11.6756    3.5766    0.3956 H   0  0  0  0  0  0  0  0  0  0  0  0
   13.7154    5.1373    0.5971 H   0  0  0  0  0  0  0  0  0  0  0  0
   12.9254    6.2052   -0.6200 H   0  0  0  0  0  0  0  0  0  0  0  0
   12.1440    5.8979    0.9809 H   0  0  0  0  0  0  0  0  0  0  0  0
   13.8472    1.5640   -1.7056 H   0  0  0  0  0  0  0  0  0  0  0  0
   13.7344    2.7098    1.1168 H   0  0  0  0  0  0  0  0  0  0  0  0
   15.4150    0.4435   -0.1296 H   0  0  0  0  0  0  0  0  0  0  0  0
   15.9598    2.1088    0.3096 H   0  0  0  0  0  0  0  0  0  0  0  0
   15.4449    0.9630    1.6064 H   0  0  0  0  0  0  0  0  0  0  0  0
   11.7731   -0.4053   -0.5244 H   0  0  0  0  0  0  0  0  0  0  0  0
   14.2101   -1.4203    1.0125 H   0  0  0  0  0  0  0  0  0  0  0  0
   14.3021   -3.2311   -0.7178 H   0  0  0  0  0  0  0  0  0  0  0  0
   14.5377   -1.5784   -1.3896 H   0  0  0  0  0  0  0  0  0  0  0  0
   12.9609   -2.4048   -1.6190 H   0  0  0  0  0  0  0  0  0  0  0  0
   10.3154   -2.7870    1.1523 H   0  0  0  0  0  0  0  0  0  0  0  0
   12.0948   -4.3794   -0.7367 H   0  0  0  0  0  0  0  0  0  0  0  0
    9.9555   -5.0996   -1.8070 H   0  0  0  0  0  0  0  0  0  0  0  0
   10.2557   -3.3271   -1.9109 H   0  0  0  0  0  0  0  0  0  0  0  0
    9.0484   -3.9517   -0.7375 H   0  0  0  0  0  0  0  0  0  0  0  0
   10.0173   -7.2879    0.2833 H   0  0  0  0  0  0  0  0  0  0  0  0
    8.2372   -5.0845    1.0552 H   0  0  0  0  0  0  0  0  0  0  0  0
    8.0198   -5.6333    3.4986 H   0  0  0  0  0  0  0  0  0  0  0  0
    9.5124   -6.6513    3.3669 H   0  0  0  0  0  0  0  0  0  0  0  0
    9.5917   -4.8788    3.0509 H   0  0  0  0  0  0  0  0  0  0  0  0
    5.9077   -7.9580    0.4298 H   0  0  0  0  0  0  0  0  0  0  0  0
    6.7881   -5.2779   -0.5481 H   0  0  0  0  0  0  0  0  0  0  0  0
    6.2240   -5.4136   -2.8329 H   0  0  0  0  0  0  0  0  0  0  0  0
    4.6505   -6.0967   -3.3599 H   0  0  0  0  0  0  0  0  0  0  0  0
    4.3590   -5.5908    1.3324 H   0  0  0  0  0  0  0  0  0  0  0  0
    5.9029   -4.7891    1.7825 H   0  0  0  0  0  0  0  0  0  0  0  0
    3.2308   -3.8508    2.1800 H   0  0  0  0  0  0  0  0  0  0  0  0
    3.4696   -2.1242    1.8479 H   0  0  0  0  0  0  0  0  0  0  0  0
  1  2  1  0
  2  3  2  0
  2  4  1  0
  4  5  1  0
  5  6  1  0
  6  7  1  0
  7  8  1  0
  8  9  1  0
  9 10  2  0
 10 11  1  0
 11 12  2  0
 12 13  1  0
 13 14  2  0
 13 15  1  0
 15 16  1  0
 16 17  1  0
 17 18  1  0
 18 19  1  0
 19 20  1  0
 20 21  2  0
 20 22  1  0
 22 23  1  0
 22 24  1  0
 24 25  1  0
 25 26  2  0
 25 27  1  0
 27 28  1  0
 27 29  1  0
 29 30  1  0
 30 31  2  0
 30 32  1  0
 32 33  1  0
 32 34  1  0
 34 35  1  0
 35 36  2  0
 35 37  1  0
 37 38  1  0
 37 39  1  0
 39 40  1  0
 40 41  2  0
 40 42  1  0
 42 43  1  0
 42 44  1  0
 44 45  1  0
 45 46  2  0
 45 47  1  0
 47 48  1  0
 47 49  1  0
 49 50  1  0
 50 51  2  0
 50 52  1  0
 52 53  1  0
 52 54  1  0
 54 55  1  0
 55 56  2  0
 55 57  1  0
 57 58  1  0
 57 59  1  0
 59 60  1  0
 60 61  2  0
 60 62  1  0
 62 63  1  0
 62 64  1  0
 64 65  1  0
 65 66  2  0
 65 67  1  0
 67 68  1  0
 67 69  1  0
 69 70  1  0
 70 71  2  0
 18 72  1  0
 72 73  2  0
 72 74  1  0
 74 75  1  0
 75 76  1  0
 75 77  1  0
 77 78  2  0
 77 79  1  0
 79 80  1  0
 80 81  1  0
 80 82  1  0
 82 83  2  0
 82 84  1  0
 84 85  1  0
 85 86  1  0
 85 87  1  0
 87 88  2  0
 87 89  1  0
 89 90  1  0
 90 91  1  0
 90 92  1  0
 92 93  2  0
 92 94  1  0
 94 95  1  0
 95 96  1  0
 95 97  1  0
 97 98  2  0
 97 99  1  0
 99100  1  0
100101  1  0
100102  1  0
102103  2  0
102104  1  0
104105  1  0
105106  1  0
105107  1  0
107108  2  0
107109  1  0
109110  1  0
110111  1  0
110112  1  0
112113  2  0
112114  1  0
114115  1  0
115116  1  0
116117  1  0
116118  2  0
115119  1  0
119120  1  0
120121  1  0
 70  5  1  0
 14  9  1  0
121 11  1  0
  1122  1  0
  1123  1  0
  1124  1  0
  4125  1  0
  5126  1  6
  6127  1  0
  6128  1  0
  8129  1  0
  8130  1  0
 10131  1  0
 12132  1  0
 14133  1  0
 15134  1  0
 15135  1  0
 17136  1  0
 17137  1  0
 18138  1  6
 19139  1  0
 22140  1  6
 23141  1  0
 23142  1  0
 23143  1  0
 24144  1  0
 27145  1  6
 28146  1  0
 28147  1  0
 28148  1  0
 29149  1  0
 32150  1  1
 33151  1  0
 33152  1  0
 33153  1  0
 34154  1  0
 37155  1  1
 38156  1  0
 38157  1  0
 38158  1  0
 39159  1  0
 42160  1  1
 43161  1  0
 43162  1  0
 43163  1  0
 44164  1  0
 47165  1  1
 48166  1  0
 48167  1  0
 48168  1  0
 49169  1  0
 52170  1  6
 53171  1  0
 53172  1  0
 53173  1  0
 54174  1  0
 57175  1  6
 58176  1  0
 58177  1  0
 58178  1  0
 59179  1  0
 62180  1  6
 63181  1  0
 63182  1  0
 63183  1  0
 64184  1  0
 67185  1  1
 68186  1  0
 68187  1  0
 68188  1  0
 69189  1  0
 74190  1  0
 75191  1  6
 76192  1  0
 76193  1  0
 76194  1  0
 79195  1  0
 80196  1  1
 81197  1  0
 81198  1  0
 81199  1  0
 84200  1  0
 85201  1  1
 86202  1  0
 86203  1  0
 86204  1  0
 89205  1  0
 90206  1  1
 91207  1  0
 91208  1  0
 91209  1  0
 94210  1  0
 95211  1  1
 96212  1  0
 96213  1  0
 96214  1  0
 99215  1  0
100216  1  1
101217  1  0
101218  1  0
101219  1  0
104220  1  0
105221  1  6
106222  1  0
106223  1  0
106224  1  0
109225  1  0
110226  1  6
111227  1  0
111228  1  0
111229  1  0
114230  1  0
115231  1  6
117232  1  0
117233  1  0
119234  1  0
119235  1  0
121236  1  0
121237  1  0
M  END
