
     RDKit          3D

237239  0  0  0  0  0  0  0  0999 V2000
    0.4630   -8.3141   -0.0846 C   0  0  0  0  0  0  0  0  0  0  0  0
    1.4177   -7.7142   -1.0779 C   0  0  0  0  0  0  0  0  0  0  0  0
    1.0097   -7.5550   -2.2631 O   0  0  0  0  0  0  0  0  0  0  0  0
    2.7651   -7.3357   -0.7515 N   0  0  0  0  0  0  0  0  0  0  0  0
    3.3162   -7.2521    0.6113 C   0  0  2  0  0  0  0  0  0  0  0  0
    2.7462   -6.0342    1.3571 C   0  0  0  0  0  0  0  0  0  0  0  0
    3.0609   -4.4810    0.4450 S   0  0  0  0  0  0  0  0  0  0  0  0
    1.9283   -3.4268    1.4159 C   0  0  0  0  0  0  0  0  0  0  0  0
    0.6787   -3.1297    0.6267 C   0  0  0  0  0  0  0  0  0  0  0  0
    0.4717   -1.8516    0.0756 C   0  0  0  0  0  0  0  0  0  0  0  0
   -0.7134   -1.5580   -0.6175 C   0  0  0  0  0  0  0  0  0  0  0  0
   -1.6845   -2.5568   -0.7816 C   0  0  0  0  0  0  0  0  0  0  0  0
   -1.4682   -3.8480   -0.2790 C   0  0  0  0  0  0  0  0  0  0  0  0
   -0.3025   -4.1202    0.4512 C   0  0  0  0  0  0  0  0  0  0  0  0
   -2.5115   -4.9128   -0.4590 C   0  0  0  0  0  0  0  0  0  0  0  0
   -3.5203   -5.0328    1.0588 S   0  0  0  0  0  0  0  0  0  0  0  0
   -5.1610   -5.1036    0.2534 C   0  0  0  0  0  0  0  0  0  0  0  0
   -5.4007   -6.4412   -0.4771 C   0  0  1  0  0  0  0  0  0  0  0  0
   -5.3667   -7.6219    0.4595 C   0  0  0  0  0  0  0  0  0  0  0  0
   -4.3139   -8.5861    0.3691 N   0  0  0  0  0  0  0  0  0  0  0  0
   -6.2837   -7.7897    1.3086 O   0  0  0  0  0  0  0  0  0  0  0  0
   -6.6467   -6.4488   -1.2602 N   0  0  0  0  0  0  0  0  0  0  0  0
   -7.7636   -5.5651   -1.0611 C   0  0  0  0  0  0  0  0  0  0  0  0
   -8.1714   -4.8733   -2.0334 O   0  0  0  0  0  0  0  0  0  0  0  0
   -8.5638   -5.5772    0.2202 C   0  0  1  0  0  0  0  0  0  0  0  0
   -8.9429   -4.1499    0.6496 C   0  0  0  0  0  0  0  0  0  0  0  0
   -9.7262   -6.4608    0.0417 N   0  0  0  0  0  0  0  0  0  0  0  0
  -11.0122   -6.2297    0.6277 C   0  0  0  0  0  0  0  0  0  0  0  0
  -11.3516   -6.8817    1.6533 O   0  0  0  0  0  0  0  0  0  0  0  0
  -11.9900   -5.2853   -0.0221 C   0  0  1  0  0  0  0  0  0  0  0  0
  -13.2121   -6.0579   -0.5270 C   0  0  0  0  0  0  0  0  0  0  0  0
  -12.4068   -4.2505    0.9343 N   0  0  0  0  0  0  0  0  0  0  0  0
  -13.1949   -3.0989    0.5926 C   0  0  0  0  0  0  0  0  0  0  0  0
  -13.8480   -2.5306    1.5095 O   0  0  0  0  0  0  0  0  0  0  0  0
  -13.1620   -2.4675   -0.7875 C   0  0  1  0  0  0  0  0  0  0  0  0
  -14.5457   -1.9748   -1.2293 C   0  0  0  0  0  0  0  0  0  0  0  0
  -12.1593   -1.3979   -0.8396 N   0  0  0  0  0  0  0  0  0  0  0  0
  -12.1075   -0.3106    0.1005 C   0  0  0  0  0  0  0  0  0  0  0  0
  -11.1739   -0.2757    0.9478 O   0  0  0  0  0  0  0  0  0  0  0  0
  -13.0988    0.8216    0.0367 C   0  0  1  0  0  0  0  0  0  0  0  0
  -13.9225    0.8940    1.3220 C   0  0  0  0  0  0  0  0  0  0  0  0
  -12.4020    2.0951   -0.1545 N   0  0  0  0  0  0  0  0  0  0  0  0
  -13.0620    3.2145   -0.7663 C   0  0  0  0  0  0  0  0  0  0  0  0
  -13.8764    3.0157   -1.7091 O   0  0  0  0  0  0  0  0  0  0  0  0
  -12.8097    4.6324   -0.3152 C   0  0  1  0  0  0  0  0  0  0  0  0
  -12.5231    4.7481    1.1887 C   0  0  0  0  0  0  0  0  0  0  0  0
  -11.7513    5.2733   -1.1046 N   0  0  0  0  0  0  0  0  0  0  0  0
  -10.3691    4.8775   -1.0394 C   0  0  0  0  0  0  0  0  0  0  0  0
  -10.0558    3.6760   -1.2662 O   0  0  0  0  0  0  0  0  0  0  0  0
   -9.2767    5.8616   -0.6934 C   0  0  1  0  0  0  0  0  0  0  0  0
   -9.7834    7.3132   -0.6334 C   0  0  0  0  0  0  0  0  0  0  0  0
   -8.6846    5.4908    0.5967 N   0  0  0  0  0  0  0  0  0  0  0  0
   -7.3362    5.7870    1.0028 C   0  0  0  0  0  0  0  0  0  0  0  0
   -6.9706    5.4442    2.1612 O   0  0  0  0  0  0  0  0  0  0  0  0
   -6.3352    6.4376    0.0706 C   0  0  1  0  0  0  0  0  0  0  0  0
   -5.2781    7.2393    0.8370 C   0  0  0  0  0  0  0  0  0  0  0  0
   -5.6893    5.4445   -0.7933 N   0  0  0  0  0  0  0  0  0  0  0  0
   -4.8811    4.3740   -0.2814 C   0  0  0  0  0  0  0  0  0  0  0  0
   -5.3598    3.5914    0.5837 O   0  0  0  0  0  0  0  0  0  0  0  0
   -3.4402    4.1989   -0.6984 C   0  0  1  0  0  0  0  0  0  0  0  0
   -3.0747    4.9754   -1.9655 C   0  0  0  0  0  0  0  0  0  0  0  0
   -2.5722    4.6130    0.4011 N   0  0  0  0  0  0  0  0  0  0  0  0
   -2.0097    3.6587    1.3046 C   0  0  0  0  0  0  0  0  0  0  0  0
   -2.5196    3.5215    2.4499 O   0  0  0  0  0  0  0  0  0  0  0  0
   -0.7342    2.9234    0.9663 C   0  0  1  0  0  0  0  0  0  0  0  0
   -0.8780    1.3985    1.1273 C   0  0  0  0  0  0  0  0  0  0  0  0
   -2.1369    0.6810   -0.0013 S   0  0  0  0  0  0  0  0  0  0  0  0
   -0.9797   -0.1701   -1.1307 C   0  0  0  0  0  0  0  0  0  0  0  0
   -0.2658    3.2692   -0.3800 N   0  0  0  0  0  0  0  0  0  0  0  0
    0.8887    4.0819   -0.5953 C   0  0  0  0  0  0  0  0  0  0  0  0
    1.9637    3.5375   -0.9725 O   0  0  0  0  0  0  0  0  0  0  0  0
    0.8165    5.5843   -0.4156 C   0  0  1  0  0  0  0  0  0  0  0  0
    0.8884    5.9672    1.0688 C   0  0  0  0  0  0  0  0  0  0  0  0
    1.8609    6.2362   -1.2273 N   0  0  0  0  0  0  0  0  0  0  0  0
    2.5520    7.4381   -0.8629 C   0  0  0  0  0  0  0  0  0  0  0  0
    2.1648    8.5317   -1.3555 O   0  0  0  0  0  0  0  0  0  0  0  0
    3.7827    7.4404    0.0300 C   0  0  1  0  0  0  0  0  0  0  0  0
    3.4789    8.1226    1.3774 C   0  0  0  0  0  0  0  0  0  0  0  0
    4.3295    6.0839    0.2299 N   0  0  0  0  0  0  0  0  0  0  0  0
    5.6858    5.7717    0.5997 C   0  0  0  0  0  0  0  0  0  0  0  0
    6.0762    4.5770    0.5022 O   0  0  0  0  0  0  0  0  0  0  0  0
    6.6660    6.8371    1.0491 C   0  0  1  0  0  0  0  0  0  0  0  0
    7.8470    6.2597    1.8420 C   0  0  0  0  0  0  0  0  0  0  0  0
    7.1375    7.6386   -0.0860 N   0  0  0  0  0  0  0  0  0  0  0  0
    7.5816    7.0694   -1.3273 C   0  0  0  0  0  0  0  0  0  0  0  0
    6.8405    7.1768   -2.3419 O   0  0  0  0  0  0  0  0  0  0  0  0
    8.9230    6.3804   -1.4289 C   0  0  1  0  0  0  0  0  0  0  0  0
    9.3752    6.2143   -2.8874 C   0  0  0  0  0  0  0  0  0  0  0  0
    9.9286    7.1602   -0.7004 N   0  0  0  0  0  0  0  0  0  0  0  0
   10.9730    6.6039    0.1159 C   0  0  0  0  0  0  0  0  0  0  0  0
   11.4873    7.3345    1.0081 O   0  0  0  0  0  0  0  0  0  0  0  0
   11.5549    5.2253   -0.1193 C   0  0  1  0  0  0  0  0  0  0  0  0
   12.9590    5.3886   -0.7130 C   0  0  0  0  0  0  0  0  0  0  0  0
   11.6070    4.4780    1.1496 N   0  0  0  0  0  0  0  0  0  0  0  0
   11.9169    3.0800    1.2977 C   0  0  0  0  0  0  0  0  0  0  0  0
   12.0008    2.6033    2.4630 O   0  0  0  0  0  0  0  0  0  0  0  0
   12.1434    2.1474    0.1313 C   0  0  1  0  0  0  0  0  0  0  0  0
   13.6229    1.7203    0.1070 C   0  0  0  0  0  0  0  0  0  0  0  0
   11.2585    0.9884    0.2709 N   0  0  0  0  0  0  0  0  0  0  0  0
   11.4922   -0.2443   -0.4194 C   0  0  0  0  0  0  0  0  0  0  0  0
   11.2119   -0.3284   -1.6439 O   0  0  0  0  0  0  0  0  0  0  0  0
   12.0393   -1.4315    0.3402 C   0  0  1  0  0  0  0  0  0  0  0  0
   11.0879   -1.7743    1.4998 C   0  0  0  0  0  0  0  0  0  0  0  0
   12.2218   -2.5942   -0.5381 N   0  0  0  0  0  0  0  0  0  0  0  0
   12.5564   -3.8830   -0.0164 C   0  0  0  0  0  0  0  0  0  0  0  0
   13.5325   -4.0096    0.7715 O   0  0  0  0  0  0  0  0  0  0  0  0
   11.6873   -5.0622   -0.3514 C   0  0  1  0  0  0  0  0  0  0  0  0
   12.5025   -6.1909   -0.9867 C   0  0  0  0  0  0  0  0  0  0  0  0
   11.0177   -5.5419    0.8594 N   0  0  0  0  0  0  0  0  0  0  0  0
    9.8079   -6.3173    0.8520 C   0  0  0  0  0  0  0  0  0  0  0  0
    9.7689   -7.3774    1.5279 O   0  0  0  0  0  0  0  0  0  0  0  0
    8.5444   -5.8738    0.1428 C   0  0  1  0  0  0  0  0  0  0  0  0
    8.3020   -4.3664    0.2704 C   0  0  0  0  0  0  0  0  0  0  0  0
    8.5670   -6.2741   -1.2666 N   0  0  0  0  0  0  0  0  0  0  0  0
    7.5665   -7.0445   -1.9662 C   0  0  0  0  0  0  0  0  0  0  0  0
    7.6796   -7.1773   -3.2144 O   0  0  0  0  0  0  0  0  0  0  0  0
    6.4224   -7.7586   -1.2839 C   0  0  1  0  0  0  0  0  0  0  0  0
    6.9412   -8.9555   -0.4716 C   0  0  0  0  0  0  0  0  0  0  0  0
    5.6011   -6.8244   -0.5028 N   0  0  0  0  0  0  0  0  0  0  0  0
    4.8296   -7.2402    0.6326 C   0  0  0  0  0  0  0  0  0  0  0  0
    5.4238   -7.6064    1.6832 O   0  0  0  0  0  0  0  0  0  0  0  0
    0.1409   -9.3140   -0.4439 H   0  0  0  0  0  0  0  0  0  0  0  0
   -0.4339   -7.6688   -0.0012 H   0  0  0  0  0  0  0  0  0  0  0  0
    0.8901   -8.4355    0.9262 H   0  0  0  0  0  0  0  0  0  0  0  0
    3.3470   -7.0163   -1.5580 H   0  0  0  0  0  0  0  0  0  0  0  0
    3.0343   -8.1737    1.1684 H   0  0  0  0  0  0  0  0  0  0  0  0
    3.1967   -5.9560    2.3720 H   0  0  0  0  0  0  0  0  0  0  0  0
    1.6598   -6.1830    1.4957 H   0  0  0  0  0  0  0  0  0  0  0  0
    1.6622   -3.8890    2.3944 H   0  0  0  0  0  0  0  0  0  0  0  0
    2.4708   -2.4847    1.6534 H   0  0  0  0  0  0  0  0  0  0  0  0
    1.2288   -1.0873    0.1912 H   0  0  0  0  0  0  0  0  0  0  0  0
   -2.6082   -2.3248   -1.2993 H   0  0  0  0  0  0  0  0  0  0  0  0
   -0.1750   -5.1011    0.8888 H   0  0  0  0  0  0  0  0  0  0  0  0
   -2.0214   -5.8901   -0.6458 H   0  0  0  0  0  0  0  0  0  0  0  0
   -3.1253   -4.6803   -1.3560 H   0  0  0  0  0  0  0  0  0  0  0  0
   -5.9220   -4.9448    1.0423 H   0  0  0  0  0  0  0  0  0  0  0  0
   -5.2522   -4.2606   -0.4646 H   0  0  0  0  0  0  0  0  0  0  0  0
   -4.5689   -6.5672   -1.2012 H   0  0  0  0  0  0  0  0  0  0  0  0
   -3.5389   -8.4763   -0.3247 H   0  0  0  0  0  0  0  0  0  0  0  0
   -4.3654   -9.4686    0.9309 H   0  0  0  0  0  0  0  0  0  0  0  0
   -6.5860   -6.8986   -2.2031 H   0  0  0  0  0  0  0  0  0  0  0  0
   -7.9508   -6.0006    1.0380 H   0  0  0  0  0  0  0  0  0  0  0  0
   -9.4666   -4.1716    1.6269 H   0  0  0  0  0  0  0  0  0  0  0  0
   -9.5919   -3.6563   -0.1017 H   0  0  0  0  0  0  0  0  0  0  0  0
   -8.0224   -3.5377    0.7742 H   0  0  0  0  0  0  0  0  0  0  0  0
   -9.5126   -7.4520   -0.2111 H   0  0  0  0  0  0  0  0  0  0  0  0
  -11.4807   -4.8191   -0.8897 H   0  0  0  0  0  0  0  0  0  0  0  0
  -12.8965   -6.8558   -1.2323 H   0  0  0  0  0  0  0  0  0  0  0  0
  -13.7614   -6.5157    0.3237 H   0  0  0  0  0  0  0  0  0  0  0  0
  -13.9039   -5.3750   -1.0645 H   0  0  0  0  0  0  0  0  0  0  0  0
  -12.2544   -4.4204    1.9553 H   0  0  0  0  0  0  0  0  0  0  0  0
  -12.8767   -3.2341   -1.5398 H   0  0  0  0  0  0  0  0  0  0  0  0
  -14.4648   -1.4282   -2.1946 H   0  0  0  0  0  0  0  0  0  0  0  0
  -15.0053   -1.3060   -0.4765 H   0  0  0  0  0  0  0  0  0  0  0  0
  -15.2251   -2.8412   -1.3779 H   0  0  0  0  0  0  0  0  0  0  0  0
  -11.2731   -1.6153   -1.3488 H   0  0  0  0  0  0  0  0  0  0  0  0
  -13.7862    0.6556   -0.8194 H   0  0  0  0  0  0  0  0  0  0  0  0
  -14.4699   -0.0539    1.4986 H   0  0  0  0  0  0  0  0  0  0  0  0
  -13.2676    1.1025    2.1948 H   0  0  0  0  0  0  0  0  0  0  0  0
  -14.6765    1.7072    1.2439 H   0  0  0  0  0  0  0  0  0  0  0  0
  -11.5499    2.2784    0.4217 H   0  0  0  0  0  0  0  0  0  0  0  0
  -13.7515    5.1985   -0.4919 H   0  0  0  0  0  0  0  0  0  0  0  0
  -12.4944    5.8193    1.4800 H   0  0  0  0  0  0  0  0  0  0  0  0
  -13.3297    4.2538    1.7705 H   0  0  0  0  0  0  0  0  0  0  0  0
  -11.5535    4.2896    1.4619 H   0  0  0  0  0  0  0  0  0  0  0  0
  -11.9964    6.1504   -1.6123 H   0  0  0  0  0  0  0  0  0  0  0  0
   -8.5104    5.7858   -1.4918 H   0  0  0  0  0  0  0  0  0  0  0  0
   -8.9739    8.0035   -0.3199 H   0  0  0  0  0  0  0  0  0  0  0  0
  -10.1419    7.6359   -1.6323 H   0  0  0  0  0  0  0  0  0  0  0  0
  -10.6104    7.4071    0.1039 H   0  0  0  0  0  0  0  0  0  0  0  0
   -9.3034    5.0441    1.3116 H   0  0  0  0  0  0  0  0  0  0  0  0
   -6.8628    7.1686   -0.5750 H   0  0  0  0  0  0  0  0  0  0  0  0
   -4.5619    7.7010    0.1221 H   0  0  0  0  0  0  0  0  0  0  0  0
   -4.7145    6.5878    1.5380 H   0  0  0  0  0  0  0  0  0  0  0  0
   -5.7671    8.0524    1.4210 H   0  0  0  0  0  0  0  0  0  0  0  0
   -5.6822    5.6306   -1.8200 H   0  0  0  0  0  0  0  0  0  0  0  0
   -3.2788    3.1211   -0.9172 H   0  0  0  0  0  0  0  0  0  0  0  0
   -3.1952    6.0677   -1.8077 H   0  0  0  0  0  0  0  0  0  0  0  0
   -3.7149    4.6515   -2.8107 H   0  0  0  0  0  0  0  0  0  0  0  0
   -2.0160    4.7716   -2.2363 H   0  0  0  0  0  0  0  0  0  0  0  0
   -2.6484    5.6030    0.7372 H   0  0  0  0  0  0  0  0  0  0  0  0
    0.0322    3.2386    1.7075 H   0  0  0  0  0  0  0  0  0  0  0  0
    0.1151    0.9172    0.9913 H   0  0  0  0  0  0  0  0  0  0  0  0
   -1.1935    1.1710    2.1682 H   0  0  0  0  0  0  0  0  0  0  0  0
   -1.4529   -0.2307   -2.1310 H   0  0  0  0  0  0  0  0  0  0  0  0
   -0.0391    0.4031   -1.2635 H   0  0  0  0  0  0  0  0  0  0  0  0
   -0.7144    2.8336   -1.2198 H   0  0  0  0  0  0  0  0  0  0  0  0
   -0.1703    5.9248   -0.7980 H   0  0  0  0  0  0  0  0  0  0  0  0
    1.8135    5.5715    1.5362 H   0  0  0  0  0  0  0  0  0  0  0  0
    0.8441    7.0688    1.1842 H   0  0  0  0  0  0  0  0  0  0  0  0
    0.0154    5.5678    1.6177 H   0  0  0  0  0  0  0  0  0  0  0  0
    1.8438    6.0169   -2.2506 H   0  0  0  0  0  0  0  0  0  0  0  0
    4.5400    8.0503   -0.5041 H   0  0  0  0  0  0  0  0  0  0  0  0
    2.6059    8.8089    1.2998 H   0  0  0  0  0  0  0  0  0  0  0  0
    4.3327    8.7509    1.6941 H   0  0  0  0  0  0  0  0  0  0  0  0
    3.2687    7.3728    2.1696 H   0  0  0  0  0  0  0  0  0  0  0  0
    3.7356    5.2568   -0.0036 H   0  0  0  0  0  0  0  0  0  0  0  0
    6.1462    7.5068    1.7585 H   0  0  0  0  0  0  0  0  0  0  0  0
    7.4722    5.7867    2.7784 H   0  0  0  0  0  0  0  0  0  0  0  0
    8.3963    5.4939    1.2607 H   0  0  0  0  0  0  0  0  0  0  0  0
    8.5496    7.0729    2.1180 H   0  0  0  0  0  0  0  0  0  0  0  0
    6.8653    8.6480   -0.1012 H   0  0  0  0  0  0  0  0  0  0  0  0
    8.8113    5.3719   -0.9846 H   0  0  0  0  0  0  0  0  0  0  0  0
   10.3700    5.7257   -2.9334 H   0  0  0  0  0  0  0  0  0  0  0  0
    8.6547    5.5785   -3.4448 H   0  0  0  0  0  0  0  0  0  0  0  0
    9.4514    7.2047   -3.3891 H   0  0  0  0  0  0  0  0  0  0  0  0
    9.8585    8.2039   -0.7309 H   0  0  0  0  0  0  0  0  0  0  0  0
   10.9282    4.6708   -0.8417 H   0  0  0  0  0  0  0  0  0  0  0  0
   12.9221    6.0593   -1.5960 H   0  0  0  0  0  0  0  0  0  0  0  0
   13.3594    4.4182   -1.0610 H   0  0  0  0  0  0  0  0  0  0  0  0
   13.6536    5.8148    0.0397 H   0  0  0  0  0  0  0  0  0  0  0  0
   11.3923    4.9900    2.0368 H   0  0  0  0  0  0  0  0  0  0  0  0
   11.9099    2.6401   -0.8298 H   0  0  0  0  0  0  0  0  0  0  0  0
   14.2860    2.6102    0.0963 H   0  0  0  0  0  0  0  0  0  0  0  0
   13.8696    1.1137    1.0035 H   0  0  0  0  0  0  0  0  0  0  0  0
   13.8332    1.1220   -0.8050 H   0  0  0  0  0  0  0  0  0  0  0  0
   10.2669    1.1686    0.5512 H   0  0  0  0  0  0  0  0  0  0  0  0
   13.0247   -1.1516    0.7691 H   0  0  0  0  0  0  0  0  0  0  0  0
   10.9678   -0.8984    2.1751 H   0  0  0  0  0  0  0  0  0  0  0  0
   11.4908   -2.6122    2.1062 H   0  0  0  0  0  0  0  0  0  0  0  0
   10.0916   -2.0603    1.1028 H   0  0  0  0  0  0  0  0  0  0  0  0
   12.4927   -2.4357   -1.5407 H   0  0  0  0  0  0  0  0  0  0  0  0
   10.9479   -4.7169   -1.0938 H   0  0  0  0  0  0  0  0  0  0  0  0
   13.2716   -6.5597   -0.2764 H   0  0  0  0  0  0  0  0  0  0  0  0
   11.8300   -7.0348   -1.2535 H   0  0  0  0  0  0  0  0  0  0  0  0
   12.9990   -5.8263   -1.9131 H   0  0  0  0  0  0  0  0  0  0  0  0
   11.6146   -5.6461    1.7151 H   0  0  0  0  0  0  0  0  0  0  0  0
    7.7011   -6.3559    0.6723 H   0  0  0  0  0  0  0  0  0  0  0  0
    8.3486   -4.0617    1.3393 H   0  0  0  0  0  0  0  0  0  0  0  0
    9.0467   -3.7858   -0.3053 H   0  0  0  0  0  0  0  0  0  0  0  0
    7.2887   -4.1194   -0.1123 H   0  0  0  0  0  0  0  0  0  0  0  0
    9.3467   -5.9186   -1.8662 H   0  0  0  0  0  0  0  0  0  0  0  0
    5.7646   -8.1799   -2.0786 H   0  0  0  0  0  0  0  0  0  0  0  0
    6.0869   -9.5671   -0.1127 H   0  0  0  0  0  0  0  0  0  0  0  0
    7.5701   -9.6091   -1.1151 H   0  0  0  0  0  0  0  0  0  0  0  0
    7.5454   -8.6336    0.4013 H   0  0  0  0  0  0  0  0  0  0  0  0
    5.3158   -5.9357   -0.9761 H   0  0  0  0  0  0  0  0  0  0  0  0
  1  2  1  0
  2  3  2  0
  2  4  1  0
  4  5  1  0
  5  6  1  0
  6  7  1  0
  7  8  1  0
  8  9  1  0
  9 10  2  0
 10 11  1  0
 11 12  2  0
 12 13  1  0
 13 14  2  0
 13 15  1  0
 15 16  1  0
 16 17  1  0
 17 18  1  0
 18 19  1  0
 19 20  1  0
 19 21  2  0
 18 22  1  0
 22 23  1  0
 23 24  2  0
 23 25  1  0
 25 26  1  0
 25 27  1  0
 27 28  1  0
 28 29  2  0
 28 30  1  0
 30 31  1  0
 30 32  1  0
 32 33  1  0
 33 34  2  0
 33 35  1  0
 35 36  1  0
 35 37  1  0
 37 38  1  0
 38 39  2  0
 38 40  1  0
 40 41  1  0
 40 42  1  0
 42 43  1  0
 43 44  2  0
 43 45  1  0
 45 46  1  0
 45 47  1  0
 47 48  1  0
 48 49  2  0
 48 50  1  0
 50 51  1  0
 50 52  1  0
 52 53  1  0
 53 54  2  0
 53 55  1  0
 55 56  1  0
 55 57  1  0
 57 58  1  0
 58 59  2  0
 58 60  1  0
 60 61  1  0
 60 62  1  0
 62 63  1  0
 63 64  2  0
 63 65  1  0
 65 66  1  0
 66 67  1  0
 67 68  1  0
 65 69  1  0
 69 70  1  0
 70 71  2  0
 70 72  1  0
 72 73  1  0
 72 74  1  0
 74 75  1  0
 75 76  2  0
 75 77  1  0
 77 78  1  0
 77 79  1  0
 79 80  1  0
 80 81  2  0
 80 82  1  0
 82 83  1  0
 82 84  1  0
 84 85  1  0
 85 86  2  0
 85 87  1  0
 87 88  1  0
 87 89  1  0
 89 90  1  0
 90 91  2  0
 90 92  1  0
 92 93  1  0
 92 94  1  0
 94 95  1  0
 95 96  2  0
 95 97  1  0
 97 98  1  0
 97 99  1  0
 99100  1  0
100101  2  0
100102  1  0
102103  1  0
102104  1  0
104105  1  0
105106  2  0
105107  1  0
107108  1  0
107109  1  0
109110  1  0
110111  2  0
110112  1  0
112113  1  0
112114  1  0
114115  1  0
115116  2  0
115117  1  0
117118  1  0
117119  1  0
119120  1  0
120121  2  0
120  5  1  0
 14  9  1  0
 68 11  1  0
  1122  1  0
  1123  1  0
  1124  1  0
  4125  1  0
  5126  1  1
  6127  1  0
  6128  1  0
  8129  1  0
  8130  1  0
 10131  1  0
 12132  1  0
 14133  1  0
 15134  1  0
 15135  1  0
 17136  1  0
 17137  1  0
 18138  1  6
 20139  1  0
 20140  1  0
 22141  1  0
 25142  1  1
 26143  1  0
 26144  1  0
 26145  1  0
 27146  1  0
 30147  1  6
 31148  1  0
 31149  1  0
 31150  1  0
 32151  1  0
 35152  1  6
 36153  1  0
 36154  1  0
 36155  1  0
 37156  1  0
 40157  1  6
 41158  1  0
 41159  1  0
 41160  1  0
 42161  1  0
 45162  1  1
 46163  1  0
 46164  1  0
 46165  1  0
 47166  1  0
 50167  1  6
 51168  1  0
 51169  1  0
 51170  1  0
 52171  1  0
 55172  1  6
 56173  1  0
 56174  1  0
 56175  1  0
 57176  1  0
 60177  1  6
 61178  1  0
 61179  1  0
 61180  1  0
 62181  1  0
 65182  1  1
 66183  1  0
 66184  1  0
 68185  1  0
 68186  1  0
 69187  1  0
 72188  1  6
 73189  1  0
 73190  1  0
 73191  1  0
 74192  1  0
 77193  1  6
 78194  1  0
 78195  1  0
 78196  1  0
 79197  1  0
 82198  1  1
 83199  1  0
 83200  1  0
 83201  1  0
 84202  1  0
 87203  1  1
 88204  1  0
 88205  1  0
 88206  1  0
 89207  1  0
 92208  1  6
 93209  1  0
 93210  1  0
 93211  1  0
 94212  1  0
 97213  1  6
 98214  1  0
 98215  1  0
 98216  1  0
 99217  1  0
102218  1  1
103219  1  0
103220  1  0
103221  1  0
104222  1  0
107223  1  6
108224  1  0
108225  1  0
108226  1  0
109227  1  0
112228  1  1
113229  1  0
113230  1  0
113231  1  0
114232  1  0
117233  1  6
118234  1  0
118235  1  0
118236  1  0
119237  1  0
M  END
