
     RDKit          3D

227229  0  0  0  0  0  0  0  0999 V2000
    2.4496   10.2125    0.4427 C   0  0  0  0  0  0  0  0  0  0  0  0
    2.3212    8.8408   -0.1369 C   0  0  0  0  0  0  0  0  0  0  0  0
    1.7707    8.6916   -1.2606 O   0  0  0  0  0  0  0  0  0  0  0  0
    2.8258    7.7129    0.5944 N   0  0  0  0  0  0  0  0  0  0  0  0
    2.8358    6.3264    0.1060 C   0  0  1  0  0  0  0  0  0  0  0  0
    1.4190    5.7989   -0.1754 C   0  0  0  0  0  0  0  0  0  0  0  0
    0.3140    6.0889    1.2607 S   0  0  0  0  0  0  0  0  0  0  0  0
   -0.0628    4.3375    1.6387 C   0  0  0  0  0  0  0  0  0  0  0  0
   -0.8888    3.7021    0.5499 C   0  0  0  0  0  0  0  0  0  0  0  0
   -0.4509    2.5176   -0.0671 C   0  0  0  0  0  0  0  0  0  0  0  0
   -1.2324    1.9017   -1.0622 C   0  0  0  0  0  0  0  0  0  0  0  0
   -2.4080    2.5315   -1.4909 C   0  0  0  0  0  0  0  0  0  0  0  0
   -2.8351    3.7314   -0.9060 C   0  0  0  0  0  0  0  0  0  0  0  0
   -2.0976    4.2870    0.1462 C   0  0  0  0  0  0  0  0  0  0  0  0
   -4.0610    4.4344   -1.4263 C   0  0  0  0  0  0  0  0  0  0  0  0
   -5.5564    3.6352   -0.7601 S   0  0  0  0  0  0  0  0  0  0  0  0
   -5.9082    4.8517    0.5657 C   0  0  0  0  0  0  0  0  0  0  0  0
   -6.9423    5.9196    0.1532 C   0  0  1  0  0  0  0  0  0  0  0  0
   -6.2909    7.0970   -0.5359 C   0  0  0  0  0  0  0  0  0  0  0  0
   -5.5745    8.0713    0.2247 N   0  0  0  0  0  0  0  0  0  0  0  0
   -6.4175    7.2628   -1.7780 O   0  0  0  0  0  0  0  0  0  0  0  0
   -8.0011    5.3444   -0.6891 N   0  0  0  0  0  0  0  0  0  0  0  0
   -9.3286    5.0734   -0.2228 C   0  0  0  0  0  0  0  0  0  0  0  0
  -10.2970    5.2476   -1.0100 O   0  0  0  0  0  0  0  0  0  0  0  0
   -9.5889    4.5371    1.1587 C   0  0  1  0  0  0  0  0  0  0  0  0
  -10.2400    5.6314    2.0179 C   0  0  0  0  0  0  0  0  0  0  0  0
  -10.4089    3.3212    1.0415 N   0  0  0  0  0  0  0  0  0  0  0  0
  -11.6539    3.0920    1.7141 C   0  0  0  0  0  0  0  0  0  0  0  0
  -11.7156    3.2168    2.9670 O   0  0  0  0  0  0  0  0  0  0  0  0
  -12.8645    2.6211    0.9482 C   0  0  1  0  0  0  0  0  0  0  0  0
  -14.1047    3.4218    1.3631 C   0  0  0  0  0  0  0  0  0  0  0  0
  -12.6557    2.7843   -0.4999 N   0  0  0  0  0  0  0  0  0  0  0  0
  -12.6742    1.7329   -1.4870 C   0  0  0  0  0  0  0  0  0  0  0  0
  -12.6204    2.0667   -2.7030 O   0  0  0  0  0  0  0  0  0  0  0  0
  -12.8222    0.2677   -1.1205 C   0  0  1  0  0  0  0  0  0  0  0  0
  -14.3024   -0.0397   -0.8589 C   0  0  0  0  0  0  0  0  0  0  0  0
  -12.3102   -0.6176   -2.1834 N   0  0  0  0  0  0  0  0  0  0  0  0
  -12.0256   -2.0244   -2.0410 C   0  0  0  0  0  0  0  0  0  0  0  0
  -11.8244   -2.6992   -3.0880 O   0  0  0  0  0  0  0  0  0  0  0  0
  -11.9475   -2.7326   -0.7071 C   0  0  1  0  0  0  0  0  0  0  0  0
  -13.1018   -3.7257   -0.5514 C   0  0  0  0  0  0  0  0  0  0  0  0
  -10.6792   -3.4579   -0.6102 N   0  0  0  0  0  0  0  0  0  0  0  0
   -9.6083   -3.0048    0.2267 C   0  0  0  0  0  0  0  0  0  0  0  0
   -9.2670   -1.7890    0.1959 O   0  0  0  0  0  0  0  0  0  0  0  0
   -8.9101   -3.9438    1.1788 C   0  0  1  0  0  0  0  0  0  0  0  0
   -9.5158   -3.8037    2.5747 C   0  0  0  0  0  0  0  0  0  0  0  0
   -9.0292   -5.3360    0.7260 N   0  0  0  0  0  0  0  0  0  0  0  0
   -8.1162   -5.9615   -0.1890 C   0  0  0  0  0  0  0  0  0  0  0  0
   -8.5833   -6.6710   -1.1212 O   0  0  0  0  0  0  0  0  0  0  0  0
   -6.6209   -5.9213    0.0260 C   0  0  1  0  0  0  0  0  0  0  0  0
   -6.1686   -7.1937    0.7460 C   0  0  0  0  0  0  0  0  0  0  0  0
   -5.9199   -5.8078   -1.2549 N   0  0  0  0  0  0  0  0  0  0  0  0
   -4.6201   -5.2089   -1.3537 C   0  0  0  0  0  0  0  0  0  0  0  0
   -3.6451   -5.9271   -1.7006 O   0  0  0  0  0  0  0  0  0  0  0  0
   -4.3805   -3.7415   -1.0898 C   0  0  1  0  0  0  0  0  0  0  0  0
   -5.6044   -2.8742   -1.3964 C   0  0  0  0  0  0  0  0  0  0  0  0
   -3.9449   -3.5337    0.2985 N   0  0  0  0  0  0  0  0  0  0  0  0
   -2.7037   -2.9261    0.6977 C   0  0  0  0  0  0  0  0  0  0  0  0
   -2.3507   -3.0195    1.9062 O   0  0  0  0  0  0  0  0  0  0  0  0
   -1.7834   -2.2392   -0.2914 C   0  0  1  0  0  0  0  0  0  0  0  0
   -0.9348   -1.1232    0.3547 C   0  0  0  0  0  0  0  0  0  0  0  0
    0.3194   -0.4479   -0.8067 S   0  0  0  0  0  0  0  0  0  0  0  0
   -0.7774    0.6515   -1.7852 C   0  0  0  0  0  0  0  0  0  0  0  0
   -0.9570   -3.2424   -0.9708 N   0  0  0  0  0  0  0  0  0  0  0  0
   -0.0374   -4.0903   -0.2680 C   0  0  0  0  0  0  0  0  0  0  0  0
    1.0051   -3.5878    0.2391 O   0  0  0  0  0  0  0  0  0  0  0  0
   -0.2982   -5.5742   -0.2020 C   0  0  1  0  0  0  0  0  0  0  0  0
   -0.1844   -6.2362   -1.5796 C   0  0  0  0  0  0  0  0  0  0  0  0
    0.5643   -6.2488    0.7779 N   0  0  0  0  0  0  0  0  0  0  0  0
    1.9518   -6.5587    0.5394 C   0  0  0  0  0  0  0  0  0  0  0  0
    2.6538   -5.7835   -0.1652 O   0  0  0  0  0  0  0  0  0  0  0  0
    2.5871   -7.8291    1.0493 C   0  0  1  0  0  0  0  0  0  0  0  0
    1.7017   -8.6164    2.0254 C   0  0  0  0  0  0  0  0  0  0  0  0
    2.9014   -8.6804   -0.1022 N   0  0  0  0  0  0  0  0  0  0  0  0
    4.2192   -8.9717   -0.5978 C   0  0  0  0  0  0  0  0  0  0  0  0
    4.3293   -9.4094   -1.7776 O   0  0  0  0  0  0  0  0  0  0  0  0
    5.4593   -8.8879    0.2766 C   0  0  1  0  0  0  0  0  0  0  0  0
    5.4203   -9.9962    1.3358 C   0  0  0  0  0  0  0  0  0  0  0  0
    6.6734   -9.0567   -0.5361 N   0  0  0  0  0  0  0  0  0  0  0  0
    7.8784   -8.2771   -0.4238 C   0  0  0  0  0  0  0  0  0  0  0  0
    8.9362   -8.7544   -0.9195 O   0  0  0  0  0  0  0  0  0  0  0  0
    7.9548   -6.9666    0.3460 C   0  0  1  0  0  0  0  0  0  0  0  0
    8.2807   -7.2760    1.8151 C   0  0  0  0  0  0  0  0  0  0  0  0
    8.9843   -6.0875   -0.2318 N   0  0  0  0  0  0  0  0  0  0  0  0
    9.3511   -4.8267    0.3518 C   0  0  0  0  0  0  0  0  0  0  0  0
    8.5187   -4.1920    1.0558 O   0  0  0  0  0  0  0  0  0  0  0  0
   10.7122   -4.2309    0.1003 C   0  0  1  0  0  0  0  0  0  0  0  0
   11.8144   -5.2886    0.2611 C   0  0  0  0  0  0  0  0  0  0  0  0
   10.7614   -3.6508   -1.2475 N   0  0  0  0  0  0  0  0  0  0  0  0
   10.8429   -2.2416   -1.5093 C   0  0  0  0  0  0  0  0  0  0  0  0
   10.1016   -1.7508   -2.4066 O   0  0  0  0  0  0  0  0  0  0  0  0
   11.7519   -1.3186   -0.7167 C   0  0  1  0  0  0  0  0  0  0  0  0
   13.1194   -1.9649   -0.4426 C   0  0  0  0  0  0  0  0  0  0  0  0
   11.9661   -0.0654   -1.4510 N   0  0  0  0  0  0  0  0  0  0  0  0
   12.4386    1.1088   -0.7816 C   0  0  0  0  0  0  0  0  0  0  0  0
   13.5677    1.5747   -1.0961 O   0  0  0  0  0  0  0  0  0  0  0  0
   11.6121    1.7841    0.2879 C   0  0  1  0  0  0  0  0  0  0  0  0
   12.4168    1.9642    1.5806 C   0  0  0  0  0  0  0  0  0  0  0  0
   11.0678    3.0738   -0.1693 N   0  0  0  0  0  0  0  0  0  0  0  0
   11.8777    4.2122   -0.4947 C   0  0  0  0  0  0  0  0  0  0  0  0
   12.8715    4.0895   -1.2578 O   0  0  0  0  0  0  0  0  0  0  0  0
   11.5413    5.5665    0.0662 C   0  0  1  0  0  0  0  0  0  0  0  0
   12.7048    6.0628    0.9263 C   0  0  0  0  0  0  0  0  0  0  0  0
   11.2972    6.5067   -1.0378 N   0  0  0  0  0  0  0  0  0  0  0  0
   10.0672    7.2005   -1.3004 C   0  0  0  0  0  0  0  0  0  0  0  0
    9.9021    7.7070   -2.4433 O   0  0  0  0  0  0  0  0  0  0  0  0
    9.0144    7.4354   -0.2365 C   0  0  1  0  0  0  0  0  0  0  0  0
    9.5304    8.4238    0.8071 C   0  0  0  0  0  0  0  0  0  0  0  0
    7.7857    7.9785   -0.8338 N   0  0  0  0  0  0  0  0  0  0  0  0
    6.4627    7.5211   -0.5228 C   0  0  0  0  0  0  0  0  0  0  0  0
    5.5344    8.3652   -0.4847 O   0  0  0  0  0  0  0  0  0  0  0  0
    6.1609    6.0669   -0.2139 C   0  0  1  0  0  0  0  0  0  0  0  0
    5.9498    5.8610    1.2886 C   0  0  0  0  0  0  0  0  0  0  0  0
    5.0289    5.5677   -1.0096 N   0  0  0  0  0  0  0  0  0  0  0  0
    3.7388    6.1883   -1.0971 C   0  0  0  0  0  0  0  0  0  0  0  0
    3.3307    6.5683   -2.2284 O   0  0  0  0  0  0  0  0  0  0  0  0
    2.0023   10.9681   -0.2366 H   0  0  0  0  0  0  0  0  0  0  0  0
    3.5241   10.4511    0.5899 H   0  0  0  0  0  0  0  0  0  0  0  0
    1.9236   10.2560    1.4198 H   0  0  0  0  0  0  0  0  0  0  0  0
    3.1795    7.8855    1.5624 H   0  0  0  0  0  0  0  0  0  0  0  0
    3.2411    5.6763    0.9147 H   0  0  0  0  0  0  0  0  0  0  0  0
    0.9729    6.3094   -1.0532 H   0  0  0  0  0  0  0  0  0  0  0  0
    1.4822    4.7210   -0.4258 H   0  0  0  0  0  0  0  0  0  0  0  0
   -0.6347    4.3025    2.5873 H   0  0  0  0  0  0  0  0  0  0  0  0
    0.8882    3.7896    1.8039 H   0  0  0  0  0  0  0  0  0  0  0  0
    0.4971    2.0846    0.2272 H   0  0  0  0  0  0  0  0  0  0  0  0
   -2.9939    2.0975   -2.2911 H   0  0  0  0  0  0  0  0  0  0  0  0
   -2.4364    5.1959    0.6264 H   0  0  0  0  0  0  0  0  0  0  0  0
   -4.0299    5.5189   -1.1946 H   0  0  0  0  0  0  0  0  0  0  0  0
   -4.0943    4.3590   -2.5331 H   0  0  0  0  0  0  0  0  0  0  0  0
   -4.9764    5.3246    0.9451 H   0  0  0  0  0  0  0  0  0  0  0  0
   -6.3176    4.2776    1.4204 H   0  0  0  0  0  0  0  0  0  0  0  0
   -7.3979    6.3183    1.0838 H   0  0  0  0  0  0  0  0  0  0  0  0
   -5.3744    8.9953   -0.2124 H   0  0  0  0  0  0  0  0  0  0  0  0
   -5.4273    7.9504    1.2483 H   0  0  0  0  0  0  0  0  0  0  0  0
   -7.8184    5.1914   -1.7077 H   0  0  0  0  0  0  0  0  0  0  0  0
   -8.6317    4.2501    1.6332 H   0  0  0  0  0  0  0  0  0  0  0  0
  -11.2666    5.8472    1.6442 H   0  0  0  0  0  0  0  0  0  0  0  0
  -10.2858    5.3123    3.0811 H   0  0  0  0  0  0  0  0  0  0  0  0
   -9.6464    6.5684    1.9710 H   0  0  0  0  0  0  0  0  0  0  0  0
  -10.1085    2.6062    0.3427 H   0  0  0  0  0  0  0  0  0  0  0  0
  -13.0385    1.5651    1.2216 H   0  0  0  0  0  0  0  0  0  0  0  0
  -13.9749    4.5008    1.1287 H   0  0  0  0  0  0  0  0  0  0  0  0
  -14.2986    3.3103    2.4510 H   0  0  0  0  0  0  0  0  0  0  0  0
  -14.9923    3.0448    0.8148 H   0  0  0  0  0  0  0  0  0  0  0  0
  -12.5320    3.7592   -0.8550 H   0  0  0  0  0  0  0  0  0  0  0  0
  -12.2246    0.1043   -0.2042 H   0  0  0  0  0  0  0  0  0  0  0  0
  -14.4070   -1.0185   -0.3592 H   0  0  0  0  0  0  0  0  0  0  0  0
  -14.7600    0.7224   -0.1962 H   0  0  0  0  0  0  0  0  0  0  0  0
  -14.8659   -0.0544   -1.8173 H   0  0  0  0  0  0  0  0  0  0  0  0
  -12.2784   -0.2590   -3.1624 H   0  0  0  0  0  0  0  0  0  0  0  0
  -12.0131   -2.0122    0.1335 H   0  0  0  0  0  0  0  0  0  0  0  0
  -12.9977   -4.2744    0.4068 H   0  0  0  0  0  0  0  0  0  0  0  0
  -13.1013   -4.4636   -1.3819 H   0  0  0  0  0  0  0  0  0  0  0  0
  -14.0818   -3.2088   -0.5507 H   0  0  0  0  0  0  0  0  0  0  0  0
  -10.5843   -4.3780   -1.0957 H   0  0  0  0  0  0  0  0  0  0  0  0
   -7.8484   -3.6434    1.2528 H   0  0  0  0  0  0  0  0  0  0  0  0
   -9.0132   -4.5072    3.2767 H   0  0  0  0  0  0  0  0  0  0  0  0
   -9.3726   -2.7675    2.9547 H   0  0  0  0  0  0  0  0  0  0  0  0
  -10.6048   -4.0341    2.5555 H   0  0  0  0  0  0  0  0  0  0  0  0
   -9.9659   -5.7900    0.8253 H   0  0  0  0  0  0  0  0  0  0  0  0
   -6.3586   -5.0676    0.6672 H   0  0  0  0  0  0  0  0  0  0  0  0
   -5.0659   -7.1868    0.8644 H   0  0  0  0  0  0  0  0  0  0  0  0
   -6.6318   -7.2438    1.7507 H   0  0  0  0  0  0  0  0  0  0  0  0
   -6.4567   -8.0933    0.1622 H   0  0  0  0  0  0  0  0  0  0  0  0
   -6.1440   -6.5271   -1.9860 H   0  0  0  0  0  0  0  0  0  0  0  0
   -3.5907   -3.4288   -1.8002 H   0  0  0  0  0  0  0  0  0  0  0  0
   -5.9124   -3.0181   -2.4545 H   0  0  0  0  0  0  0  0  0  0  0  0
   -6.4523   -3.1302   -0.7310 H   0  0  0  0  0  0  0  0  0  0  0  0
   -5.3504   -1.8060   -1.2420 H   0  0  0  0  0  0  0  0  0  0  0  0
   -4.5731   -3.8512    1.0685 H   0  0  0  0  0  0  0  0  0  0  0  0
   -2.4264   -1.7337   -1.0431 H   0  0  0  0  0  0  0  0  0  0  0  0
   -0.3865   -1.5250    1.2364 H   0  0  0  0  0  0  0  0  0  0  0  0
   -1.5939   -0.3086    0.7209 H   0  0  0  0  0  0  0  0  0  0  0  0
   -1.6538    0.0750   -2.1441 H   0  0  0  0  0  0  0  0  0  0  0  0
   -0.2114    0.9680   -2.6865 H   0  0  0  0  0  0  0  0  0  0  0  0
   -1.2243   -3.5161   -1.9413 H   0  0  0  0  0  0  0  0  0  0  0  0
   -1.3550   -5.7006    0.1315 H   0  0  0  0  0  0  0  0  0  0  0  0
    0.8158   -6.0608   -2.0250 H   0  0  0  0  0  0  0  0  0  0  0  0
   -0.3520   -7.3319   -1.4837 H   0  0  0  0  0  0  0  0  0  0  0  0
   -0.9505   -5.8294   -2.2699 H   0  0  0  0  0  0  0  0  0  0  0  0
    0.1046   -6.5861    1.6526 H   0  0  0  0  0  0  0  0  0  0  0  0
    3.5019   -7.5405    1.5967 H   0  0  0  0  0  0  0  0  0  0  0  0
    1.4813   -8.0043    2.9260 H   0  0  0  0  0  0  0  0  0  0  0  0
    2.2305   -9.5339    2.3540 H   0  0  0  0  0  0  0  0  0  0  0  0
    0.7514   -8.9202    1.5349 H   0  0  0  0  0  0  0  0  0  0  0  0
    2.0951   -8.9913   -0.6907 H   0  0  0  0  0  0  0  0  0  0  0  0
    5.4800   -7.9124    0.7926 H   0  0  0  0  0  0  0  0  0  0  0  0
    5.2636  -10.9852    0.8587 H   0  0  0  0  0  0  0  0  0  0  0  0
    4.6081   -9.8082    2.0663 H   0  0  0  0  0  0  0  0  0  0  0  0
    6.3806  -10.0304    1.8930 H   0  0  0  0  0  0  0  0  0  0  0  0
    6.7414   -9.9258   -1.1130 H   0  0  0  0  0  0  0  0  0  0  0  0
    6.9869   -6.4308    0.2798 H   0  0  0  0  0  0  0  0  0  0  0  0
    9.3025   -7.7042    1.9017 H   0  0  0  0  0  0  0  0  0  0  0  0
    7.5500   -7.9972    2.2334 H   0  0  0  0  0  0  0  0  0  0  0  0
    8.2196   -6.3548    2.4280 H   0  0  0  0  0  0  0  0  0  0  0  0
    9.5204   -6.3990   -1.0724 H   0  0  0  0  0  0  0  0  0  0  0  0
   10.8868   -3.4394    0.8612 H   0  0  0  0  0  0  0  0  0  0  0  0
   12.8140   -4.8475    0.0864 H   0  0  0  0  0  0  0  0  0  0  0  0
   11.6904   -6.1139   -0.4697 H   0  0  0  0  0  0  0  0  0  0  0  0
   11.7889   -5.7048    1.2903 H   0  0  0  0  0  0  0  0  0  0  0  0
   10.5258   -4.2745   -2.0509 H   0  0  0  0  0  0  0  0  0  0  0  0
   11.2630   -1.0981    0.2561 H   0  0  0  0  0  0  0  0  0  0  0  0
   13.0578   -2.6373    0.4344 H   0  0  0  0  0  0  0  0  0  0  0  0
   13.4796   -2.5322   -1.3303 H   0  0  0  0  0  0  0  0  0  0  0  0
   13.8755   -1.1950   -0.1877 H   0  0  0  0  0  0  0  0  0  0  0  0
   12.2292   -0.1469   -2.4598 H   0  0  0  0  0  0  0  0  0  0  0  0
   10.7499    1.1268    0.5303 H   0  0  0  0  0  0  0  0  0  0  0  0
   11.7727    2.4109    2.3692 H   0  0  0  0  0  0  0  0  0  0  0  0
   12.7790    0.9774    1.9392 H   0  0  0  0  0  0  0  0  0  0  0  0
   13.2876    2.6308    1.4152 H   0  0  0  0  0  0  0  0  0  0  0  0
   10.0391    3.2295   -0.0507 H   0  0  0  0  0  0  0  0  0  0  0  0
   10.6534    5.4704    0.7218 H   0  0  0  0  0  0  0  0  0  0  0  0
   12.4708    7.0508    1.3672 H   0  0  0  0  0  0  0  0  0  0  0  0
   13.6300    6.1687    0.3190 H   0  0  0  0  0  0  0  0  0  0  0  0
   12.9007    5.3471    1.7546 H   0  0  0  0  0  0  0  0  0  0  0  0
   12.0566    6.6193   -1.7502 H   0  0  0  0  0  0  0  0  0  0  0  0
    8.7896    6.4867    0.2826 H   0  0  0  0  0  0  0  0  0  0  0  0
   10.3528    7.9754    1.3973 H   0  0  0  0  0  0  0  0  0  0  0  0
    9.8933    9.3558    0.3245 H   0  0  0  0  0  0  0  0  0  0  0  0
    8.7173    8.6848    1.5152 H   0  0  0  0  0  0  0  0  0  0  0  0
    7.8612    8.9087   -1.3142 H   0  0  0  0  0  0  0  0  0  0  0  0
    7.0427    5.4572   -0.5032 H   0  0  0  0  0  0  0  0  0  0  0  0
    6.9065    6.0125    1.8340 H   0  0  0  0  0  0  0  0  0  0  0  0
    5.2200    6.5869    1.6974 H   0  0  0  0  0  0  0  0  0  0  0  0
    5.5978    4.8270    1.4872 H   0  0  0  0  0  0  0  0  0  0  0  0
    5.2664    4.8935   -1.7718 H   0  0  0  0  0  0  0  0  0  0  0  0
  1  2  1  0
  2  3  2  0
  2  4  1  0
  4  5  1  0
  5  6  1  0
  6  7  1  0
  7  8  1  0
  8  9  1  0
  9 10  2  0
 10 11  1  0
 11 12  2  0
 12 13  1  0
 13 14  2  0
 13 15  1  0
 15 16  1  0
 16 17  1  0
 17 18  1  0
 18 19  1  0
 19 20  1  0
 19 21  2  0
 18 22  1  0
 22 23  1  0
 23 24  2  0
 23 25  1  0
 25 26  1  0
 25 27  1  0
 27 28  1  0
 28 29  2  0
 28 30  1  0
 30 31  1  0
 30 32  1  0
 32 33  1  0
 33 34  2  0
 33 35  1  0
 35 36  1  0
 35 37  1  0
 37 38  1  0
 38 39  2  0
 38 40  1  0
 40 41  1  0
 40 42  1  0
 42 43  1  0
 43 44  2  0
 43 45  1  0
 45 46  1  0
 45 47  1  0
 47 48  1  0
 48 49  2  0
 48 50  1  0
 50 51  1  0
 50 52  1  0
 52 53  1  0
 53 54  2  0
 53 55  1  0
 55 56  1  0
 55 57  1  0
 57 58  1  0
 58 59  2  0
 58 60  1  0
 60 61  1  0
 61 62  1  0
 62 63  1  0
 60 64  1  0
 64 65  1  0
 65 66  2  0
 65 67  1  0
 67 68  1  0
 67 69  1  0
 69 70  1  0
 70 71  2  0
 70 72  1  0
 72 73  1  0
 72 74  1  0
 74 75  1  0
 75 76  2  0
 75 77  1  0
 77 78  1  0
 77 79  1  0
 79 80  1  0
 80 81  2  0
 80 82  1  0
 82 83  1  0
 82 84  1  0
 84 85  1  0
 85 86  2  0
 85 87  1  0
 87 88  1  0
 87 89  1  0
 89 90  1  0
 90 91  2  0
 90 92  1  0
 92 93  1  0
 92 94  1  0
 94 95  1  0
 95 96  2  0
 95 97  1  0
 97 98  1  0
 97 99  1  0
 99100  1  0
100101  2  0
100102  1  0
102103  1  0
102104  1  0
104105  1  0
105106  2  0
105107  1  0
107108  1  0
107109  1  0
109110  1  0
110111  2  0
110112  1  0
112113  1  0
112114  1  0
114115  1  0
115116  2  0
115  5  1  0
 14  9  1  0
 63 11  1  0
  1117  1  0
  1118  1  0
  1119  1  0
  4120  1  0
  5121  1  1
  6122  1  0
  6123  1  0
  8124  1  0
  8125  1  0
 10126  1  0
 12127  1  0
 14128  1  0
 15129  1  0
 15130  1  0
 17131  1  0
 17132  1  0
 18133  1  1
 20134  1  0
 20135  1  0
 22136  1  0
 25137  1  1
 26138  1  0
 26139  1  0
 26140  1  0
 27141  1  0
 30142  1  6
 31143  1  0
 31144  1  0
 31145  1  0
 32146  1  0
 35147  1  1
 36148  1  0
 36149  1  0
 36150  1  0
 37151  1  0
 40152  1  1
 41153  1  0
 41154  1  0
 41155  1  0
 42156  1  0
 45157  1  1
 46158  1  0
 46159  1  0
 46160  1  0
 47161  1  0
 50162  1  1
 51163  1  0
 51164  1  0
 51165  1  0
 52166  1  0
 55167  1  6
 56168  1  0
 56169  1  0
 56170  1  0
 57171  1  0
 60172  1  6
 61173  1  0
 61174  1  0
 63175  1  0
 63176  1  0
 64177  1  0
 67178  1  1
 68179  1  0
 68180  1  0
 68181  1  0
 69182  1  0
 72183  1  1
 73184  1  0
 73185  1  0
 73186  1  0
 74187  1  0
 77188  1  1
 78189  1  0
 78190  1  0
 78191  1  0
 79192  1  0
 82193  1  1
 83194  1  0
 83195  1  0
 83196  1  0
 84197  1  0
 87198  1  1
 88199  1  0
 88200  1  0
 88201  1  0
 89202  1  0
 92203  1  1
 93204  1  0
 93205  1  0
 93206  1  0
 94207  1  0
 97208  1  1
 98209  1  0
 98210  1  0
 98211  1  0
 99212  1  0
102213  1  1
103214  1  0
103215  1  0
103216  1  0
104217  1  0
107218  1  1
108219  1  0
108220  1  0
108221  1  0
109222  1  0
112223  1  6
113224  1  0
113225  1  0
113226  1  0
114227  1  0
M  END
