
     RDKit          3D

217219  0  0  0  0  0  0  0  0999 V2000
   -0.4999    8.7871   -2.1601 C   0  0  0  0  0  0  0  0  0  0  0  0
    0.6794    8.0691   -1.5936 C   0  0  0  0  0  0  0  0  0  0  0  0
    1.8412    8.4510   -1.9030 O   0  0  0  0  0  0  0  0  0  0  0  0
    0.4950    6.9560   -0.7063 N   0  0  0  0  0  0  0  0  0  0  0  0
    1.6185    6.2617   -0.0655 C   0  0  2  0  0  0  0  0  0  0  0  0
    1.2656    4.7662    0.1789 C   0  0  0  0  0  0  0  0  0  0  0  0
    0.8934    4.2978    1.9182 S   0  0  0  0  0  0  0  0  0  0  0  0
   -0.8553    4.8418    1.9632 C   0  0  0  0  0  0  0  0  0  0  0  0
   -1.7707    3.9103    1.2146 C   0  0  0  0  0  0  0  0  0  0  0  0
   -1.9785    2.6055    1.6769 C   0  0  0  0  0  0  0  0  0  0  0  0
   -2.9411    1.7761    1.0741 C   0  0  0  0  0  0  0  0  0  0  0  0
   -3.7146    2.2821    0.0070 C   0  0  0  0  0  0  0  0  0  0  0  0
   -3.4973    3.5819   -0.4735 C   0  0  0  0  0  0  0  0  0  0  0  0
   -2.5229    4.3859    0.1312 C   0  0  0  0  0  0  0  0  0  0  0  0
   -4.3546    4.1382   -1.5842 C   0  0  0  0  0  0  0  0  0  0  0  0
   -5.5660    5.3336   -0.9265 S   0  0  0  0  0  0  0  0  0  0  0  0
   -6.6583    4.1138   -0.0890 C   0  0  0  0  0  0  0  0  0  0  0  0
   -8.1343    4.4926   -0.2800 C   0  0  1  0  0  0  0  0  0  0  0  0
   -8.5247    4.2955   -1.7245 C   0  0  0  0  0  0  0  0  0  0  0  0
   -8.8084    5.4139   -2.5609 N   0  0  0  0  0  0  0  0  0  0  0  0
   -8.5896    3.1312   -2.2019 O   0  0  0  0  0  0  0  0  0  0  0  0
   -8.9895    3.6767    0.5876 N   0  0  0  0  0  0  0  0  0  0  0  0
  -10.0560    4.2250    1.3755 C   0  0  0  0  0  0  0  0  0  0  0  0
  -10.0754    3.9981    2.6167 O   0  0  0  0  0  0  0  0  0  0  0  0
  -11.1950    5.0195    0.7737 C   0  0  1  0  0  0  0  0  0  0  0  0
  -10.9237    6.5248    0.8314 C   0  0  0  0  0  0  0  0  0  0  0  0
  -11.4821    4.5934   -0.6050 N   0  0  0  0  0  0  0  0  0  0  0  0
  -12.2137    3.4045   -0.9507 C   0  0  0  0  0  0  0  0  0  0  0  0
  -12.4466    3.1697   -2.1694 O   0  0  0  0  0  0  0  0  0  0  0  0
  -12.7743    2.4680    0.0932 C   0  0  1  0  0  0  0  0  0  0  0  0
  -14.2441    2.8031    0.3639 C   0  0  0  0  0  0  0  0  0  0  0  0
  -12.6335    1.0742   -0.3472 N   0  0  0  0  0  0  0  0  0  0  0  0
  -11.4230    0.3475   -0.0953 C   0  0  0  0  0  0  0  0  0  0  0  0
  -10.3076    0.9203   -0.2146 O   0  0  0  0  0  0  0  0  0  0  0  0
  -11.4801   -1.0803    0.3900 C   0  0  1  0  0  0  0  0  0  0  0  0
  -12.5075   -1.1961    1.5246 C   0  0  0  0  0  0  0  0  0  0  0  0
  -11.8136   -1.9765   -0.7234 N   0  0  0  0  0  0  0  0  0  0  0  0
  -11.3321   -3.3297   -0.8336 C   0  0  0  0  0  0  0  0  0  0  0  0
  -11.0398   -3.7751   -1.9736 O   0  0  0  0  0  0  0  0  0  0  0  0
  -11.1963   -4.2258    0.3744 C   0  0  1  0  0  0  0  0  0  0  0  0
  -11.4630   -5.7053    0.0583 C   0  0  0  0  0  0  0  0  0  0  0  0
   -9.8905   -4.0228    1.0338 N   0  0  0  0  0  0  0  0  0  0  0  0
   -8.6305   -4.3534    0.4171 C   0  0  0  0  0  0  0  0  0  0  0  0
   -8.5040   -5.4400   -0.2148 O   0  0  0  0  0  0  0  0  0  0  0  0
   -7.4482   -3.4469    0.6154 C   0  0  1  0  0  0  0  0  0  0  0  0
   -6.7106   -3.7809    1.9136 C   0  0  0  0  0  0  0  0  0  0  0  0
   -6.5579   -3.4723   -0.5541 N   0  0  0  0  0  0  0  0  0  0  0  0
   -5.6736   -4.5569   -0.8595 C   0  0  0  0  0  0  0  0  0  0  0  0
   -6.0314   -5.4199   -1.7052 O   0  0  0  0  0  0  0  0  0  0  0  0
   -4.2784   -4.6006   -0.3012 C   0  0  1  0  0  0  0  0  0  0  0  0
   -3.9808   -5.9727    0.3136 C   0  0  0  0  0  0  0  0  0  0  0  0
   -3.3207   -4.3297   -1.3785 N   0  0  0  0  0  0  0  0  0  0  0  0
   -2.9038   -2.9970   -1.6847 C   0  0  0  0  0  0  0  0  0  0  0  0
   -3.3549   -2.4394   -2.7178 O   0  0  0  0  0  0  0  0  0  0  0  0
   -1.8233   -2.3004   -0.8885 C   0  0  1  0  0  0  0  0  0  0  0  0
   -2.2298   -0.8765   -0.4791 C   0  0  0  0  0  0  0  0  0  0  0  0
   -3.7794   -0.8444    0.5010 S   0  0  0  0  0  0  0  0  0  0  0  0
   -3.2504    0.4374    1.7024 C   0  0  0  0  0  0  0  0  0  0  0  0
   -1.4216   -3.0778    0.3002 N   0  0  0  0  0  0  0  0  0  0  0  0
   -0.6132   -4.2639    0.2818 C   0  0  0  0  0  0  0  0  0  0  0  0
   -0.5595   -4.9615    1.3271 O   0  0  0  0  0  0  0  0  0  0  0  0
    0.1646   -4.7074   -0.9508 C   0  0  1  0  0  0  0  0  0  0  0  0
    1.3274   -3.7738   -1.3189 C   0  0  0  0  0  0  0  0  0  0  0  0
    0.6250   -6.1026   -0.8146 N   0  0  0  0  0  0  0  0  0  0  0  0
    1.5934   -6.6160    0.1245 C   0  0  0  0  0  0  0  0  0  0  0  0
    1.7358   -7.8668    0.1988 O   0  0  0  0  0  0  0  0  0  0  0  0
    2.4790   -5.7155    0.9762 C   0  0  1  0  0  0  0  0  0  0  0  0
    2.7552   -6.2947    2.3640 C   0  0  0  0  0  0  0  0  0  0  0  0
    3.7307   -5.3686    0.2853 N   0  0  0  0  0  0  0  0  0  0  0  0
    4.5306   -6.2558   -0.5116 C   0  0  0  0  0  0  0  0  0  0  0  0
    4.9819   -5.8305   -1.6133 O   0  0  0  0  0  0  0  0  0  0  0  0
    4.9860   -7.6094   -0.0043 C   0  0  1  0  0  0  0  0  0  0  0  0
    5.3322   -8.5638   -1.1481 C   0  0  0  0  0  0  0  0  0  0  0  0
    6.1271   -7.4958    0.9204 N   0  0  0  0  0  0  0  0  0  0  0  0
    7.2240   -6.5858    0.7083 C   0  0  0  0  0  0  0  0  0  0  0  0
    6.9985   -5.3522    0.6060 O   0  0  0  0  0  0  0  0  0  0  0  0
    8.6494   -7.0703    0.5515 C   0  0  1  0  0  0  0  0  0  0  0  0
    8.8393   -8.5396    0.9193 C   0  0  0  0  0  0  0  0  0  0  0  0
    9.0635   -6.8641   -0.8420 N   0  0  0  0  0  0  0  0  0  0  0  0
   10.1230   -6.0129   -1.2999 C   0  0  0  0  0  0  0  0  0  0  0  0
   10.2227   -5.8030   -2.5410 O   0  0  0  0  0  0  0  0  0  0  0  0
   11.1521   -5.3959   -0.3700 C   0  0  1  0  0  0  0  0  0  0  0  0
   12.1094   -6.4675    0.1592 C   0  0  0  0  0  0  0  0  0  0  0  0
   11.9363   -4.3805   -1.0926 N   0  0  0  0  0  0  0  0  0  0  0  0
   11.8320   -2.9537   -0.9239 C   0  0  0  0  0  0  0  0  0  0  0  0
   12.6421   -2.2194   -1.5491 O   0  0  0  0  0  0  0  0  0  0  0  0
   10.8312   -2.3022    0.0068 C   0  0  1  0  0  0  0  0  0  0  0  0
   11.4515   -2.1880    1.4079 C   0  0  0  0  0  0  0  0  0  0  0  0
   10.4433   -0.9954   -0.5369 N   0  0  0  0  0  0  0  0  0  0  0  0
   10.2103    0.1668    0.2658 C   0  0  0  0  0  0  0  0  0  0  0  0
    9.1691    0.2278    0.9799 O   0  0  0  0  0  0  0  0  0  0  0  0
   11.2485    1.2732    0.3325 C   0  0  1  0  0  0  0  0  0  0  0  0
   12.0323    1.3753   -0.9829 C   0  0  0  0  0  0  0  0  0  0  0  0
   10.6285    2.5709    0.6279 N   0  0  0  0  0  0  0  0  0  0  0  0
   11.4078    3.7604    0.8022 C   0  0  0  0  0  0  0  0  0  0  0  0
   12.5175    3.6923    1.4004 O   0  0  0  0  0  0  0  0  0  0  0  0
   10.9344    5.0851    0.2533 C   0  0  1  0  0  0  0  0  0  0  0  0
   12.0236    5.7093   -0.6248 C   0  0  0  0  0  0  0  0  0  0  0  0
    9.7204    4.9072   -0.5522 N   0  0  0  0  0  0  0  0  0  0  0  0
    8.4182    5.1906   -0.0275 C   0  0  0  0  0  0  0  0  0  0  0  0
    7.7225    4.2458    0.4287 O   0  0  0  0  0  0  0  0  0  0  0  0
    7.8327    6.5851   -0.0462 C   0  0  1  0  0  0  0  0  0  0  0  0
    8.6733    7.5704   -0.8621 C   0  0  0  0  0  0  0  0  0  0  0  0
    6.4824    6.5280   -0.5993 N   0  0  0  0  0  0  0  0  0  0  0  0
    5.3821    7.1944    0.0194 C   0  0  0  0  0  0  0  0  0  0  0  0
    5.0784    8.3578   -0.3630 O   0  0  0  0  0  0  0  0  0  0  0  0
    4.5360    6.4904    1.0571 C   0  0  1  0  0  0  0  0  0  0  0  0
    5.3525    6.1402    2.3041 C   0  0  0  0  0  0  0  0  0  0  0  0
    3.4070    7.3304    1.4546 N   0  0  0  0  0  0  0  0  0  0  0  0
    2.0309    7.0151    1.1768 C   0  0  0  0  0  0  0  0  0  0  0  0
    1.1428    7.4593    1.9568 O   0  0  0  0  0  0  0  0  0  0  0  0
   -0.4844    8.7221   -3.2676 H   0  0  0  0  0  0  0  0  0  0  0  0
   -1.4519    8.3422   -1.7946 H   0  0  0  0  0  0  0  0  0  0  0  0
   -0.4698    9.8543   -1.8565 H   0  0  0  0  0  0  0  0  0  0  0  0
   -0.4712    6.7560   -0.3714 H   0  0  0  0  0  0  0  0  0  0  0  0
    2.4698    6.2690   -0.7817 H   0  0  0  0  0  0  0  0  0  0  0  0
    0.4409    4.4408   -0.4869 H   0  0  0  0  0  0  0  0  0  0  0  0
    2.1474    4.1552   -0.1149 H   0  0  0  0  0  0  0  0  0  0  0  0
   -0.9441    5.8873    1.6116 H   0  0  0  0  0  0  0  0  0  0  0  0
   -1.1729    4.8606    3.0283 H   0  0  0  0  0  0  0  0  0  0  0  0
   -1.4226    2.2526    2.5391 H   0  0  0  0  0  0  0  0  0  0  0  0
   -4.4921    1.6675   -0.4320 H   0  0  0  0  0  0  0  0  0  0  0  0
   -2.3885    5.3986   -0.2224 H   0  0  0  0  0  0  0  0  0  0  0  0
   -3.7048    4.6727   -2.3041 H   0  0  0  0  0  0  0  0  0  0  0  0
   -4.8624    3.3316   -2.1528 H   0  0  0  0  0  0  0  0  0  0  0  0
   -6.4896    3.0875   -0.4767 H   0  0  0  0  0  0  0  0  0  0  0  0
   -6.4029    4.1139    0.9892 H   0  0  0  0  0  0  0  0  0  0  0  0
   -8.2341    5.5613   -0.0034 H   0  0  0  0  0  0  0  0  0  0  0  0
   -9.0158    5.2733   -3.5743 H   0  0  0  0  0  0  0  0  0  0  0  0
   -8.7453    6.3886   -2.1916 H   0  0  0  0  0  0  0  0  0  0  0  0
   -8.6193    2.7472    0.8942 H   0  0  0  0  0  0  0  0  0  0  0  0
  -12.1061    4.8560    1.3955 H   0  0  0  0  0  0  0  0  0  0  0  0
  -10.0778    6.8051    0.1761 H   0  0  0  0  0  0  0  0  0  0  0  0
  -10.6909    6.8335    1.8760 H   0  0  0  0  0  0  0  0  0  0  0  0
  -11.8221    7.0831    0.4967 H   0  0  0  0  0  0  0  0  0  0  0  0
  -11.1442    5.1916   -1.3845 H   0  0  0  0  0  0  0  0  0  0  0  0
  -12.2325    2.5878    1.0465 H   0  0  0  0  0  0  0  0  0  0  0  0
  -14.6072    2.2272    1.2401 H   0  0  0  0  0  0  0  0  0  0  0  0
  -14.3565    3.8809    0.5864 H   0  0  0  0  0  0  0  0  0  0  0  0
  -14.8834    2.5666   -0.5159 H   0  0  0  0  0  0  0  0  0  0  0  0
  -13.4829    0.5340   -0.6308 H   0  0  0  0  0  0  0  0  0  0  0  0
  -10.4768   -1.3373    0.7911 H   0  0  0  0  0  0  0  0  0  0  0  0
  -12.4426   -0.3126    2.2010 H   0  0  0  0  0  0  0  0  0  0  0  0
  -12.3026   -2.0841    2.1537 H   0  0  0  0  0  0  0  0  0  0  0  0
  -13.5396   -1.2612    1.1205 H   0  0  0  0  0  0  0  0  0  0  0  0
  -12.2475   -1.5677   -1.5834 H   0  0  0  0  0  0  0  0  0  0  0  0
  -11.9902   -3.9498    1.0951 H   0  0  0  0  0  0  0  0  0  0  0  0
  -10.8138   -6.0815   -0.7580 H   0  0  0  0  0  0  0  0  0  0  0  0
  -12.5180   -5.8279   -0.2655 H   0  0  0  0  0  0  0  0  0  0  0  0
  -11.3076   -6.3222    0.9705 H   0  0  0  0  0  0  0  0  0  0  0  0
   -9.8663   -3.3170    1.7938 H   0  0  0  0  0  0  0  0  0  0  0  0
   -7.8351   -2.4066    0.7143 H   0  0  0  0  0  0  0  0  0  0  0  0
   -7.3909   -3.6337    2.7817 H   0  0  0  0  0  0  0  0  0  0  0  0
   -5.8420   -3.1086    2.0487 H   0  0  0  0  0  0  0  0  0  0  0  0
   -6.3742   -4.8382    1.9181 H   0  0  0  0  0  0  0  0  0  0  0  0
   -6.8718   -2.9042   -1.3746 H   0  0  0  0  0  0  0  0  0  0  0  0
   -4.1709   -3.8393    0.5008 H   0  0  0  0  0  0  0  0  0  0  0  0
   -4.7895   -6.2788    1.0039 H   0  0  0  0  0  0  0  0  0  0  0  0
   -3.0218   -5.9353    0.8746 H   0  0  0  0  0  0  0  0  0  0  0  0
   -3.8920   -6.7504   -0.4820 H   0  0  0  0  0  0  0  0  0  0  0  0
   -3.2749   -5.0236   -2.1575 H   0  0  0  0  0  0  0  0  0  0  0  0
   -0.9493   -2.1835   -1.5531 H   0  0  0  0  0  0  0  0  0  0  0  0
   -1.3853   -0.4295    0.0850 H   0  0  0  0  0  0  0  0  0  0  0  0
   -2.3773   -0.2535   -1.3884 H   0  0  0  0  0  0  0  0  0  0  0  0
   -2.3555    0.0434    2.2446 H   0  0  0  0  0  0  0  0  0  0  0  0
   -4.0653    0.5707    2.4459 H   0  0  0  0  0  0  0  0  0  0  0  0
   -1.8287   -2.8095    1.2240 H   0  0  0  0  0  0  0  0  0  0  0  0
   -0.5490   -4.6853   -1.8039 H   0  0  0  0  0  0  0  0  0  0  0  0
    1.6864   -3.2020   -0.4413 H   0  0  0  0  0  0  0  0  0  0  0  0
    1.0160   -3.0479   -2.0942 H   0  0  0  0  0  0  0  0  0  0  0  0
    2.1754   -4.3468   -1.7559 H   0  0  0  0  0  0  0  0  0  0  0  0
    0.1584   -6.8057   -1.4335 H   0  0  0  0  0  0  0  0  0  0  0  0
    1.9389   -4.7761    1.1797 H   0  0  0  0  0  0  0  0  0  0  0  0
    3.1590   -7.3247    2.3267 H   0  0  0  0  0  0  0  0  0  0  0  0
    3.4752   -5.6472    2.9075 H   0  0  0  0  0  0  0  0  0  0  0  0
    1.8085   -6.3253    2.9475 H   0  0  0  0  0  0  0  0  0  0  0  0
    3.9283   -4.3493    0.1759 H   0  0  0  0  0  0  0  0  0  0  0  0
    4.1532   -8.0854    0.5482 H   0  0  0  0  0  0  0  0  0  0  0  0
    6.2011   -8.1885   -1.7233 H   0  0  0  0  0  0  0  0  0  0  0  0
    4.4646   -8.6708   -1.8347 H   0  0  0  0  0  0  0  0  0  0  0  0
    5.5826   -9.5687   -0.7500 H   0  0  0  0  0  0  0  0  0  0  0  0
    6.2988   -8.3345    1.5115 H   0  0  0  0  0  0  0  0  0  0  0  0
    9.2784   -6.4789    1.2476 H   0  0  0  0  0  0  0  0  0  0  0  0
    8.5732   -8.7078    1.9851 H   0  0  0  0  0  0  0  0  0  0  0  0
    9.9021   -8.8307    0.7807 H   0  0  0  0  0  0  0  0  0  0  0  0
    8.2193   -9.1941    0.2656 H   0  0  0  0  0  0  0  0  0  0  0  0
    8.4975   -7.3550   -1.5780 H   0  0  0  0  0  0  0  0  0  0  0  0
   10.6464   -4.9370    0.4984 H   0  0  0  0  0  0  0  0  0  0  0  0
   12.9127   -5.9879    0.7607 H   0  0  0  0  0  0  0  0  0  0  0  0
   11.5739   -7.1732    0.8257 H   0  0  0  0  0  0  0  0  0  0  0  0
   12.5682   -7.0323   -0.6810 H   0  0  0  0  0  0  0  0  0  0  0  0
   12.6166   -4.7173   -1.8085 H   0  0  0  0  0  0  0  0  0  0  0  0
    9.9138   -2.9244    0.0627 H   0  0  0  0  0  0  0  0  0  0  0  0
   12.3338   -1.5145    1.3857 H   0  0  0  0  0  0  0  0  0  0  0  0
   11.7764   -3.1842    1.7705 H   0  0  0  0  0  0  0  0  0  0  0  0
   10.7061   -1.7857    2.1292 H   0  0  0  0  0  0  0  0  0  0  0  0
   10.0800   -0.9664   -1.5187 H   0  0  0  0  0  0  0  0  0  0  0  0
   11.9559    1.0148    1.1495 H   0  0  0  0  0  0  0  0  0  0  0  0
   11.3532    1.6668   -1.8174 H   0  0  0  0  0  0  0  0  0  0  0  0
   12.8330    2.1422   -0.9015 H   0  0  0  0  0  0  0  0  0  0  0  0
   12.5275    0.4119   -1.2324 H   0  0  0  0  0  0  0  0  0  0  0  0
    9.6017    2.6314    0.8269 H   0  0  0  0  0  0  0  0  0  0  0  0
   10.7277    5.7678    1.1069 H   0  0  0  0  0  0  0  0  0  0  0  0
   11.6637    6.6486   -1.0865 H   0  0  0  0  0  0  0  0  0  0  0  0
   12.9226    5.9458   -0.0196 H   0  0  0  0  0  0  0  0  0  0  0  0
   12.3126    5.0008   -1.4365 H   0  0  0  0  0  0  0  0  0  0  0  0
    9.7748    4.2947   -1.3993 H   0  0  0  0  0  0  0  0  0  0  0  0
    7.8009    6.9549    1.0040 H   0  0  0  0  0  0  0  0  0  0  0  0
    9.6478    7.7557   -0.3608 H   0  0  0  0  0  0  0  0  0  0  0  0
    8.1366    8.5433   -0.9416 H   0  0  0  0  0  0  0  0  0  0  0  0
    8.8540    7.1809   -1.8891 H   0  0  0  0  0  0  0  0  0  0  0  0
    6.3637    6.2032   -1.5901 H   0  0  0  0  0  0  0  0  0  0  0  0
    4.1774    5.5329    0.6178 H   0  0  0  0  0  0  0  0  0  0  0  0
    6.1325    5.3882    2.0679 H   0  0  0  0  0  0  0  0  0  0  0  0
    4.6792    5.7045    3.0769 H   0  0  0  0  0  0  0  0  0  0  0  0
    5.8343    7.0488    2.7240 H   0  0  0  0  0  0  0  0  0  0  0  0
    3.5959    8.1523    2.0764 H   0  0  0  0  0  0  0  0  0  0  0  0
  1  2  1  0
  2  3  2  0
  2  4  1  0
  4  5  1  0
  5  6  1  0
  6  7  1  0
  7  8  1  0
  8  9  1  0
  9 10  2  0
 10 11  1  0
 11 12  2  0
 12 13  1  0
 13 14  2  0
 13 15  1  0
 15 16  1  0
 16 17  1  0
 17 18  1  0
 18 19  1  0
 19 20  1  0
 19 21  2  0
 18 22  1  0
 22 23  1  0
 23 24  2  0
 23 25  1  0
 25 26  1  0
 25 27  1  0
 27 28  1  0
 28 29  2  0
 28 30  1  0
 30 31  1  0
 30 32  1  0
 32 33  1  0
 33 34  2  0
 33 35  1  0
 35 36  1  0
 35 37  1  0
 37 38  1  0
 38 39  2  0
 38 40  1  0
 40 41  1  0
 40 42  1  0
 42 43  1  0
 43 44  2  0
 43 45  1  0
 45 46  1  0
 45 47  1  0
 47 48  1  0
 48 49  2  0
 48 50  1  0
 50 51  1  0
 50 52  1  0
 52 53  1  0
 53 54  2  0
 53 55  1  0
 55 56  1  0
 56 57  1  0
 57 58  1  0
 55 59  1  0
 59 60  1  0
 60 61  2  0
 60 62  1  0
 62 63  1  0
 62 64  1  0
 64 65  1  0
 65 66  2  0
 65 67  1  0
 67 68  1  0
 67 69  1  0
 69 70  1  0
 70 71  2  0
 70 72  1  0
 72 73  1  0
 72 74  1  0
 74 75  1  0
 75 76  2  0
 75 77  1  0
 77 78  1  0
 77 79  1  0
 79 80  1  0
 80 81  2  0
 80 82  1  0
 82 83  1  0
 82 84  1  0
 84 85  1  0
 85 86  2  0
 85 87  1  0
 87 88  1  0
 87 89  1  0
 89 90  1  0
 90 91  2  0
 90 92  1  0
 92 93  1  0
 92 94  1  0
 94 95  1  0
 95 96  2  0
 95 97  1  0
 97 98  1  0
 97 99  1  0
 99100  1  0
100101  2  0
100102  1  0
102103  1  0
102104  1  0
104105  1  0
105106  2  0
105107  1  0
107108  1  0
107109  1  0
109110  1  0
110111  2  0
110  5  1  0
 14  9  1  0
 58 11  1  0
  1112  1  0
  1113  1  0
  1114  1  0
  4115  1  0
  5116  1  6
  6117  1  0
  6118  1  0
  8119  1  0
  8120  1  0
 10121  1  0
 12122  1  0
 14123  1  0
 15124  1  0
 15125  1  0
 17126  1  0
 17127  1  0
 18128  1  1
 20129  1  0
 20130  1  0
 22131  1  0
 25132  1  1
 26133  1  0
 26134  1  0
 26135  1  0
 27136  1  0
 30137  1  1
 31138  1  0
 31139  1  0
 31140  1  0
 32141  1  0
 35142  1  1
 36143  1  0
 36144  1  0
 36145  1  0
 37146  1  0
 40147  1  1
 41148  1  0
 41149  1  0
 41150  1  0
 42151  1  0
 45152  1  1
 46153  1  0
 46154  1  0
 46155  1  0
 47156  1  0
 50157  1  1
 51158  1  0
 51159  1  0
 51160  1  0
 52161  1  0
 55162  1  6
 56163  1  0
 56164  1  0
 58165  1  0
 58166  1  0
 59167  1  0
 62168  1  6
 63169  1  0
 63170  1  0
 63171  1  0
 64172  1  0
 67173  1  1
 68174  1  0
 68175  1  0
 68176  1  0
 69177  1  0
 72178  1  1
 73179  1  0
 73180  1  0
 73181  1  0
 74182  1  0
 77183  1  1
 78184  1  0
 78185  1  0
 78186  1  0
 79187  1  0
 82188  1  1
 83189  1  0
 83190  1  0
 83191  1  0
 84192  1  0
 87193  1  1
 88194  1  0
 88195  1  0
 88196  1  0
 89197  1  0
 92198  1  1
 93199  1  0
 93200  1  0
 93201  1  0
 94202  1  0
 97203  1  1
 98204  1  0
 98205  1  0
 98206  1  0
 99207  1  0
102208  1  1
103209  1  0
103210  1  0
103211  1  0
104212  1  0
107213  1  6
108214  1  0
108215  1  0
108216  1  0
109217  1  0
M  END
