
     RDKit          3D

237239  0  0  0  0  0  0  0  0999 V2000
   -3.1618   -9.0386   -1.7125 C   0  0  0  0  0  0  0  0  0  0  0  0
   -2.5400   -8.2691   -2.8373 C   0  0  0  0  0  0  0  0  0  0  0  0
   -2.3420   -8.8577   -3.9366 O   0  0  0  0  0  0  0  0  0  0  0  0
   -2.0804   -6.9228   -2.6662 N   0  0  0  0  0  0  0  0  0  0  0  0
   -2.5975   -5.9829   -1.6741 C   0  0  1  0  0  0  0  0  0  0  0  0
   -1.4962   -4.9953   -1.2483 C   0  0  0  0  0  0  0  0  0  0  0  0
   -0.0959   -5.9124   -0.4953 S   0  0  0  0  0  0  0  0  0  0  0  0
    0.3034   -4.7383    0.8482 C   0  0  0  0  0  0  0  0  0  0  0  0
    1.3147   -3.7180    0.4016 C   0  0  0  0  0  0  0  0  0  0  0  0
    0.8945   -2.4639   -0.0679 C   0  0  0  0  0  0  0  0  0  0  0  0
    1.8262   -1.4361   -0.2861 C   0  0  0  0  0  0  0  0  0  0  0  0
    3.1871   -1.6823   -0.0767 C   0  0  0  0  0  0  0  0  0  0  0  0
    3.6278   -2.9429    0.3697 C   0  0  0  0  0  0  0  0  0  0  0  0
    2.6842   -3.9442    0.6286 C   0  0  0  0  0  0  0  0  0  0  0  0
    5.0711   -3.1486    0.7461 C   0  0  0  0  0  0  0  0  0  0  0  0
    6.0741   -3.7959   -0.6518 S   0  0  0  0  0  0  0  0  0  0  0  0
    5.6367   -5.5710   -0.5138 C   0  0  0  0  0  0  0  0  0  0  0  0
    6.3617   -6.2767    0.6538 C   0  0  1  0  0  0  0  0  0  0  0  0
    5.7140   -7.6099    0.9249 C   0  0  0  0  0  0  0  0  0  0  0  0
    4.9948   -7.8270    2.1451 N   0  0  0  0  0  0  0  0  0  0  0  0
    5.7847   -8.5339    0.0666 O   0  0  0  0  0  0  0  0  0  0  0  0
    7.7855   -6.4710    0.3487 N   0  0  0  0  0  0  0  0  0  0  0  0
    8.7481   -6.9412    1.3153 C   0  0  0  0  0  0  0  0  0  0  0  0
    9.7552   -7.5782    0.8915 O   0  0  0  0  0  0  0  0  0  0  0  0
    8.6333   -6.5943    2.7932 C   0  0  1  0  0  0  0  0  0  0  0  0
    9.1685   -7.7391    3.6660 C   0  0  0  0  0  0  0  0  0  0  0  0
    9.3715   -5.3606    3.0942 N   0  0  0  0  0  0  0  0  0  0  0  0
    9.3665   -4.2215    2.2193 C   0  0  0  0  0  0  0  0  0  0  0  0
    8.2979   -3.5777    2.0483 O   0  0  0  0  0  0  0  0  0  0  0  0
   10.6369   -3.7647    1.5382 C   0  0  1  0  0  0  0  0  0  0  0  0
   11.7684   -4.7919    1.7152 C   0  0  0  0  0  0  0  0  0  0  0  0
   10.3979   -3.4954    0.1144 N   0  0  0  0  0  0  0  0  0  0  0  0
   11.3388   -2.7750   -0.7184 C   0  0  0  0  0  0  0  0  0  0  0  0
   12.5009   -2.5607   -0.2863 O   0  0  0  0  0  0  0  0  0  0  0  0
   10.9173   -2.0889   -2.0151 C   0  0  1  0  0  0  0  0  0  0  0  0
    9.5282   -2.5085   -2.5088 C   0  0  0  0  0  0  0  0  0  0  0  0
   10.9853   -0.6141   -1.9277 N   0  0  0  0  0  0  0  0  0  0  0  0
   11.4025    0.1686   -0.7891 C   0  0  0  0  0  0  0  0  0  0  0  0
   11.1878   -0.2460    0.3831 O   0  0  0  0  0  0  0  0  0  0  0  0
   11.9815    1.5490   -0.9655 C   0  0  1  0  0  0  0  0  0  0  0  0
   12.6661    1.7829   -2.3192 C   0  0  0  0  0  0  0  0  0  0  0  0
   10.9464    2.5504   -0.7184 N   0  0  0  0  0  0  0  0  0  0  0  0
   10.5527    2.8389    0.6221 C   0  0  0  0  0  0  0  0  0  0  0  0
    9.5971    2.2097    1.1439 O   0  0  0  0  0  0  0  0  0  0  0  0
   11.4089    3.7175    1.4886 C   0  0  1  0  0  0  0  0  0  0  0  0
   12.1271    4.8381    0.7172 C   0  0  0  0  0  0  0  0  0  0  0  0
   10.6563    4.2104    2.6466 N   0  0  0  0  0  0  0  0  0  0  0  0
    9.8763    5.4133    2.7645 C   0  0  0  0  0  0  0  0  0  0  0  0
    9.9929    6.0615    3.8560 O   0  0  0  0  0  0  0  0  0  0  0  0
    8.7146    5.7654    1.8275 C   0  0  1  0  0  0  0  0  0  0  0  0
    7.9379    6.9750    2.3855 C   0  0  0  0  0  0  0  0  0  0  0  0
    9.1873    6.1118    0.4802 N   0  0  0  0  0  0  0  0  0  0  0  0
    8.6612    5.6912   -0.8069 C   0  0  0  0  0  0  0  0  0  0  0  0
    9.4085    5.8638   -1.8027 O   0  0  0  0  0  0  0  0  0  0  0  0
    7.3139    4.9959   -1.0779 C   0  0  1  0  0  0  0  0  0  0  0  0
    7.4552    3.4785   -1.0153 C   0  0  0  0  0  0  0  0  0  0  0  0
    6.1907    5.4557   -0.2417 N   0  0  0  0  0  0  0  0  0  0  0  0
    4.9233    5.8580   -0.7846 C   0  0  0  0  0  0  0  0  0  0  0  0
    4.5475    7.0507   -0.6176 O   0  0  0  0  0  0  0  0  0  0  0  0
    3.9358    4.8784   -1.3772 C   0  0  1  0  0  0  0  0  0  0  0  0
    4.3243    4.4838   -2.8062 C   0  0  0  0  0  0  0  0  0  0  0  0
    3.8077    3.7013   -0.5133 N   0  0  0  0  0  0  0  0  0  0  0  0
    2.6030    3.3346    0.1792 C   0  0  0  0  0  0  0  0  0  0  0  0
    2.6869    2.9216    1.3652 O   0  0  0  0  0  0  0  0  0  0  0  0
    1.2414    3.3582   -0.4891 C   0  0  1  0  0  0  0  0  0  0  0  0
    1.1440    2.4121   -1.7239 C   0  0  0  0  0  0  0  0  0  0  0  0
    2.2328    0.9122   -1.7096 S   0  0  0  0  0  0  0  0  0  0  0  0
    1.3286   -0.0212   -0.4241 C   0  0  0  0  0  0  0  0  0  0  0  0
    0.1820    3.0488    0.4739 N   0  0  0  0  0  0  0  0  0  0  0  0
   -0.6910    3.9887    1.1416 C   0  0  0  0  0  0  0  0  0  0  0  0
   -1.1266    3.6785    2.2808 O   0  0  0  0  0  0  0  0  0  0  0  0
   -1.1018    5.3197    0.5653 C   0  0  1  0  0  0  0  0  0  0  0  0
   -0.0682    6.4011    0.8981 C   0  0  0  0  0  0  0  0  0  0  0  0
   -1.3587    5.2287   -0.8870 N   0  0  0  0  0  0  0  0  0  0  0  0
   -1.8337    6.3173   -1.6933 C   0  0  0  0  0  0  0  0  0  0  0  0
   -1.4281    6.4021   -2.8877 O   0  0  0  0  0  0  0  0  0  0  0  0
   -2.9019    7.2742   -1.2113 C   0  0  1  0  0  0  0  0  0  0  0  0
   -2.4442    8.7219   -1.4204 C   0  0  0  0  0  0  0  0  0  0  0  0
   -4.1519    7.0067   -1.9428 N   0  0  0  0  0  0  0  0  0  0  0  0
   -5.3390    7.7717   -1.6933 C   0  0  0  0  0  0  0  0  0  0  0  0
   -5.6342    8.7143   -2.4732 O   0  0  0  0  0  0  0  0  0  0  0  0
   -6.2591    7.3899   -0.5714 C   0  0  1  0  0  0  0  0  0  0  0  0
   -6.8128    8.6368    0.1240 C   0  0  0  0  0  0  0  0  0  0  0  0
   -7.3000    6.4959   -1.1078 N   0  0  0  0  0  0  0  0  0  0  0  0
   -8.7110    6.7459   -1.0541 C   0  0  0  0  0  0  0  0  0  0  0  0
   -9.3272    6.9967   -2.1312 O   0  0  0  0  0  0  0  0  0  0  0  0
   -9.4880    6.5643    0.2258 C   0  0  1  0  0  0  0  0  0  0  0  0
  -10.3462    7.7911    0.5242 C   0  0  0  0  0  0  0  0  0  0  0  0
  -10.3361    5.3667    0.1387 N   0  0  0  0  0  0  0  0  0  0  0  0
  -11.0093    4.8471    1.2926 C   0  0  0  0  0  0  0  0  0  0  0  0
  -10.4020    4.8103    2.3973 O   0  0  0  0  0  0  0  0  0  0  0  0
  -12.4779    4.4763    1.2406 C   0  0  1  0  0  0  0  0  0  0  0  0
  -13.0061    4.0763   -0.1457 C   0  0  0  0  0  0  0  0  0  0  0  0
  -12.8136    3.4749    2.2579 N   0  0  0  0  0  0  0  0  0  0  0  0
  -12.3175    2.1227    2.3750 C   0  0  0  0  0  0  0  0  0  0  0  0
  -12.7489    1.4115    3.3313 O   0  0  0  0  0  0  0  0  0  0  0  0
  -11.3245    1.5053    1.4022 C   0  0  1  0  0  0  0  0  0  0  0  0
  -10.1499    0.8660    2.1566 C   0  0  0  0  0  0  0  0  0  0  0  0
  -11.9618    0.5083    0.5428 N   0  0  0  0  0  0  0  0  0  0  0  0
  -12.5892   -0.6777    1.0259 C   0  0  0  0  0  0  0  0  0  0  0  0
  -13.6494   -0.5962    1.6989 O   0  0  0  0  0  0  0  0  0  0  0  0
  -12.0223   -2.0267    0.6776 C   0  0  1  0  0  0  0  0  0  0  0  0
  -11.7103   -2.7941    1.9742 C   0  0  0  0  0  0  0  0  0  0  0  0
  -12.9882   -2.7566   -0.1758 N   0  0  0  0  0  0  0  0  0  0  0  0
  -13.1615   -4.1797   -0.1757 C   0  0  0  0  0  0  0  0  0  0  0  0
  -14.3004   -4.6425    0.0807 O   0  0  0  0  0  0  0  0  0  0  0  0
  -12.0347   -5.1544   -0.4799 C   0  0  1  0  0  0  0  0  0  0  0  0
  -12.4864   -6.1397   -1.5653 C   0  0  0  0  0  0  0  0  0  0  0  0
  -10.8189   -4.4659   -0.9427 N   0  0  0  0  0  0  0  0  0  0  0  0
   -9.4711   -4.9062   -0.6800 C   0  0  0  0  0  0  0  0  0  0  0  0
   -8.5558   -4.4247   -1.4034 O   0  0  0  0  0  0  0  0  0  0  0  0
   -9.1329   -5.9551    0.3837 C   0  0  1  0  0  0  0  0  0  0  0  0
   -9.5121   -7.3712   -0.0643 C   0  0  0  0  0  0  0  0  0  0  0  0
   -7.7253   -5.9704    0.8314 N   0  0  0  0  0  0  0  0  0  0  0  0
   -6.6112   -5.2907    0.2271 C   0  0  0  0  0  0  0  0  0  0  0  0
   -6.2955   -4.1452    0.6622 O   0  0  0  0  0  0  0  0  0  0  0  0
   -5.6801   -6.0005   -0.7405 C   0  0  1  0  0  0  0  0  0  0  0  0
   -6.4197   -7.0267   -1.6050 C   0  0  0  0  0  0  0  0  0  0  0  0
   -5.0219   -5.0271   -1.6082 N   0  0  0  0  0  0  0  0  0  0  0  0
   -3.7512   -5.2064   -2.2715 C   0  0  0  0  0  0  0  0  0  0  0  0
   -3.5752   -4.6281   -3.3762 O   0  0  0  0  0  0  0  0  0  0  0  0
   -4.0606   -8.5224   -1.3237 H   0  0  0  0  0  0  0  0  0  0  0  0
   -3.4711  -10.0501   -2.0636 H   0  0  0  0  0  0  0  0  0  0  0  0
   -2.4180   -9.1594   -0.8905 H   0  0  0  0  0  0  0  0  0  0  0  0
   -1.3294   -6.5950   -3.3293 H   0  0  0  0  0  0  0  0  0  0  0  0
   -2.9023   -6.5206   -0.7601 H   0  0  0  0  0  0  0  0  0  0  0  0
   -1.9265   -4.2570   -0.5403 H   0  0  0  0  0  0  0  0  0  0  0  0
   -1.1060   -4.4416   -2.1296 H   0  0  0  0  0  0  0  0  0  0  0  0
   -0.6113   -4.2474    1.2506 H   0  0  0  0  0  0  0  0  0  0  0  0
    0.7190   -5.3408    1.6804 H   0  0  0  0  0  0  0  0  0  0  0  0
   -0.1657   -2.2703   -0.1875 H   0  0  0  0  0  0  0  0  0  0  0  0
    3.8970   -0.8701   -0.1552 H   0  0  0  0  0  0  0  0  0  0  0  0
    2.9962   -4.8785    1.0586 H   0  0  0  0  0  0  0  0  0  0  0  0
    5.5144   -2.1779    1.0577 H   0  0  0  0  0  0  0  0  0  0  0  0
    5.1390   -3.8013    1.6324 H   0  0  0  0  0  0  0  0  0  0  0  0
    4.5389   -5.6693   -0.4126 H   0  0  0  0  0  0  0  0  0  0  0  0
    5.8988   -6.0595   -1.4761 H   0  0  0  0  0  0  0  0  0  0  0  0
    6.2713   -5.6368    1.5500 H   0  0  0  0  0  0  0  0  0  0  0  0
    4.9198   -7.0627    2.8624 H   0  0  0  0  0  0  0  0  0  0  0  0
    4.5306   -8.7446    2.3153 H   0  0  0  0  0  0  0  0  0  0  0  0
    8.0852   -6.4830   -0.6524 H   0  0  0  0  0  0  0  0  0  0  0  0
    7.5717   -6.4474    3.0779 H   0  0  0  0  0  0  0  0  0  0  0  0
   10.2799   -7.7956    3.6079 H   0  0  0  0  0  0  0  0  0  0  0  0
    8.7394   -8.7027    3.3176 H   0  0  0  0  0  0  0  0  0  0  0  0
    8.8587   -7.5840    4.7213 H   0  0  0  0  0  0  0  0  0  0  0  0
    9.6285   -5.1733    4.1001 H   0  0  0  0  0  0  0  0  0  0  0  0
   10.9434   -2.8212    2.0449 H   0  0  0  0  0  0  0  0  0  0  0  0
   12.7157   -4.4177    1.2904 H   0  0  0  0  0  0  0  0  0  0  0  0
   11.9430   -5.0040    2.7914 H   0  0  0  0  0  0  0  0  0  0  0  0
   11.5050   -5.7391    1.1969 H   0  0  0  0  0  0  0  0  0  0  0  0
    9.4509   -3.7226   -0.2675 H   0  0  0  0  0  0  0  0  0  0  0  0
   11.6399   -2.4083   -2.8005 H   0  0  0  0  0  0  0  0  0  0  0  0
    8.7275   -2.1377   -1.8314 H   0  0  0  0  0  0  0  0  0  0  0  0
    9.4669   -3.6148   -2.6179 H   0  0  0  0  0  0  0  0  0  0  0  0
    9.3467   -2.0807   -3.5222 H   0  0  0  0  0  0  0  0  0  0  0  0
   10.5483   -0.0847   -2.7279 H   0  0  0  0  0  0  0  0  0  0  0  0
   12.7730    1.6750   -0.1863 H   0  0  0  0  0  0  0  0  0  0  0  0
   13.4243    0.9941   -2.4951 H   0  0  0  0  0  0  0  0  0  0  0  0
   11.9156    1.7502   -3.1450 H   0  0  0  0  0  0  0  0  0  0  0  0
   13.1720    2.7788   -2.3106 H   0  0  0  0  0  0  0  0  0  0  0  0
   10.6756    3.2351   -1.4632 H   0  0  0  0  0  0  0  0  0  0  0  0
   12.2054    3.0403    1.8799 H   0  0  0  0  0  0  0  0  0  0  0  0
   12.3812    5.6917    1.3886 H   0  0  0  0  0  0  0  0  0  0  0  0
   13.0723    4.4409    0.2881 H   0  0  0  0  0  0  0  0  0  0  0  0
   11.5201    5.1974   -0.1298 H   0  0  0  0  0  0  0  0  0  0  0  0
   10.8959    3.7478    3.5550 H   0  0  0  0  0  0  0  0  0  0  0  0
    8.0418    4.8756    1.7725 H   0  0  0  0  0  0  0  0  0  0  0  0
    7.1940    6.6411    3.1450 H   0  0  0  0  0  0  0  0  0  0  0  0
    8.6130    7.7301    2.8536 H   0  0  0  0  0  0  0  0  0  0  0  0
    7.4111    7.5495    1.5879 H   0  0  0  0  0  0  0  0  0  0  0  0
    9.9641    6.8088    0.4431 H   0  0  0  0  0  0  0  0  0  0  0  0
    7.0645    5.2446   -2.1359 H   0  0  0  0  0  0  0  0  0  0  0  0
    8.2344    3.1438   -1.7417 H   0  0  0  0  0  0  0  0  0  0  0  0
    6.5187    2.9777   -1.2944 H   0  0  0  0  0  0  0  0  0  0  0  0
    7.7014    3.1586    0.0067 H   0  0  0  0  0  0  0  0  0  0  0  0
    6.4159    5.9568    0.6326 H   0  0  0  0  0  0  0  0  0  0  0  0
    2.9624    5.3985   -1.4496 H   0  0  0  0  0  0  0  0  0  0  0  0
    3.5263    3.8591   -3.2540 H   0  0  0  0  0  0  0  0  0  0  0  0
    4.4430    5.3939   -3.4296 H   0  0  0  0  0  0  0  0  0  0  0  0
    5.2614    3.9034   -2.8411 H   0  0  0  0  0  0  0  0  0  0  0  0
    4.6809    3.2427   -0.1588 H   0  0  0  0  0  0  0  0  0  0  0  0
    1.0848    4.3833   -0.8737 H   0  0  0  0  0  0  0  0  0  0  0  0
    0.0854    2.1107   -1.8974 H   0  0  0  0  0  0  0  0  0  0  0  0
    1.4538    2.9881   -2.6209 H   0  0  0  0  0  0  0  0  0  0  0  0
    1.5169    0.4584    0.5530 H   0  0  0  0  0  0  0  0  0  0  0  0
    0.2315    0.0094   -0.6248 H   0  0  0  0  0  0  0  0  0  0  0  0
    0.1197    2.0736    0.8352 H   0  0  0  0  0  0  0  0  0  0  0  0
   -2.0494    5.5949    1.0617 H   0  0  0  0  0  0  0  0  0  0  0  0
    0.1260    6.4048    1.9933 H   0  0  0  0  0  0  0  0  0  0  0  0
   -0.4649    7.3990    0.6292 H   0  0  0  0  0  0  0  0  0  0  0  0
    0.8929    6.2388    0.3683 H   0  0  0  0  0  0  0  0  0  0  0  0
   -1.1550    4.3394   -1.3868 H   0  0  0  0  0  0  0  0  0  0  0  0
   -3.0968    7.1270   -0.1329 H   0  0  0  0  0  0  0  0  0  0  0  0
   -3.1572    9.4204   -0.9350 H   0  0  0  0  0  0  0  0  0  0  0  0
   -2.3857    8.9608   -2.5013 H   0  0  0  0  0  0  0  0  0  0  0  0
   -1.4447    8.8809   -0.9615 H   0  0  0  0  0  0  0  0  0  0  0  0
   -4.2658    6.1209   -2.4699 H   0  0  0  0  0  0  0  0  0  0  0  0
   -5.6669    6.8222    0.1839 H   0  0  0  0  0  0  0  0  0  0  0  0
   -7.3435    8.3564    1.0560 H   0  0  0  0  0  0  0  0  0  0  0  0
   -5.9821    9.3193    0.4004 H   0  0  0  0  0  0  0  0  0  0  0  0
   -7.5021    9.1882   -0.5515 H   0  0  0  0  0  0  0  0  0  0  0  0
   -6.9921    5.6501   -1.6315 H   0  0  0  0  0  0  0  0  0  0  0  0
   -8.7613    6.4266    1.0591 H   0  0  0  0  0  0  0  0  0  0  0  0
  -10.8241    7.6901    1.5247 H   0  0  0  0  0  0  0  0  0  0  0  0
  -11.1499    7.9047   -0.2414 H   0  0  0  0  0  0  0  0  0  0  0  0
   -9.7277    8.7139    0.5292 H   0  0  0  0  0  0  0  0  0  0  0  0
  -10.4800    4.9010   -0.7788 H   0  0  0  0  0  0  0  0  0  0  0  0
  -13.0119    5.4182    1.5090 H   0  0  0  0  0  0  0  0  0  0  0  0
  -14.1095    3.9690   -0.0804 H   0  0  0  0  0  0  0  0  0  0  0  0
  -12.7885    4.8692   -0.8811 H   0  0  0  0  0  0  0  0  0  0  0  0
  -12.5667    3.1256   -0.4909 H   0  0  0  0  0  0  0  0  0  0  0  0
  -13.5060    3.7759    2.9872 H   0  0  0  0  0  0  0  0  0  0  0  0
  -10.8762    2.2936    0.7601 H   0  0  0  0  0  0  0  0  0  0  0  0
  -10.5045    0.0983    2.8753 H   0  0  0  0  0  0  0  0  0  0  0  0
   -9.4577    0.3822    1.4326 H   0  0  0  0  0  0  0  0  0  0  0  0
   -9.5828    1.6428    2.7162 H   0  0  0  0  0  0  0  0  0  0  0  0
  -12.0671    0.7238   -0.4871 H   0  0  0  0  0  0  0  0  0  0  0  0
  -11.0791   -1.8913    0.1092 H   0  0  0  0  0  0  0  0  0  0  0  0
  -11.1617   -3.7281    1.7546 H   0  0  0  0  0  0  0  0  0  0  0  0
  -11.0653   -2.1793    2.6350 H   0  0  0  0  0  0  0  0  0  0  0  0
  -12.6466   -3.0465    2.5168 H   0  0  0  0  0  0  0  0  0  0  0  0
  -13.7524   -2.2092   -0.6354 H   0  0  0  0  0  0  0  0  0  0  0  0
  -11.8355   -5.7120    0.4568 H   0  0  0  0  0  0  0  0  0  0  0  0
  -13.2896   -6.7954   -1.1663 H   0  0  0  0  0  0  0  0  0  0  0  0
  -11.6386   -6.7760   -1.8980 H   0  0  0  0  0  0  0  0  0  0  0  0
  -12.8855   -5.5928   -2.4448 H   0  0  0  0  0  0  0  0  0  0  0  0
  -10.9408   -3.7348   -1.6798 H   0  0  0  0  0  0  0  0  0  0  0  0
   -9.7387   -5.7089    1.2783 H   0  0  0  0  0  0  0  0  0  0  0  0
   -9.2517   -7.5384   -1.1311 H   0  0  0  0  0  0  0  0  0  0  0  0
  -10.5910   -7.5652    0.0706 H   0  0  0  0  0  0  0  0  0  0  0  0
   -8.9818   -8.1315    0.5489 H   0  0  0  0  0  0  0  0  0  0  0  0
   -7.5079   -6.5406    1.6850 H   0  0  0  0  0  0  0  0  0  0  0  0
   -4.9354   -6.5448   -0.1211 H   0  0  0  0  0  0  0  0  0  0  0  0
   -5.7505   -7.4099   -2.4016 H   0  0  0  0  0  0  0  0  0  0  0  0
   -6.7544   -7.8859   -0.9827 H   0  0  0  0  0  0  0  0  0  0  0  0
   -7.2909   -6.5598   -2.1029 H   0  0  0  0  0  0  0  0  0  0  0  0
   -5.6453   -4.2894   -2.0109 H   0  0  0  0  0  0  0  0  0  0  0  0
  1  2  1  0
  2  3  2  0
  2  4  1  0
  4  5  1  0
  5  6  1  0
  6  7  1  0
  7  8  1  0
  8  9  1  0
  9 10  2  0
 10 11  1  0
 11 12  2  0
 12 13  1  0
 13 14  2  0
 13 15  1  0
 15 16  1  0
 16 17  1  0
 17 18  1  0
 18 19  1  0
 19 20  1  0
 19 21  2  0
 18 22  1  0
 22 23  1  0
 23 24  2  0
 23 25  1  0
 25 26  1  0
 25 27  1  0
 27 28  1  0
 28 29  2  0
 28 30  1  0
 30 31  1  0
 30 32  1  0
 32 33  1  0
 33 34  2  0
 33 35  1  0
 35 36  1  0
 35 37  1  0
 37 38  1  0
 38 39  2  0
 38 40  1  0
 40 41  1  0
 40 42  1  0
 42 43  1  0
 43 44  2  0
 43 45  1  0
 45 46  1  0
 45 47  1  0
 47 48  1  0
 48 49  2  0
 48 50  1  0
 50 51  1  0
 50 52  1  0
 52 53  1  0
 53 54  2  0
 53 55  1  0
 55 56  1  0
 55 57  1  0
 57 58  1  0
 58 59  2  0
 58 60  1  0
 60 61  1  0
 60 62  1  0
 62 63  1  0
 63 64  2  0
 63 65  1  0
 65 66  1  0
 66 67  1  0
 67 68  1  0
 65 69  1  0
 69 70  1  0
 70 71  2  0
 70 72  1  0
 72 73  1  0
 72 74  1  0
 74 75  1  0
 75 76  2  0
 75 77  1  0
 77 78  1  0
 77 79  1  0
 79 80  1  0
 80 81  2  0
 80 82  1  0
 82 83  1  0
 82 84  1  0
 84 85  1  0
 85 86  2  0
 85 87  1  0
 87 88  1  0
 87 89  1  0
 89 90  1  0
 90 91  2  0
 90 92  1  0
 92 93  1  0
 92 94  1  0
 94 95  1  0
 95 96  2  0
 95 97  1  0
 97 98  1  0
 97 99  1  0
 99100  1  0
100101  2  0
100102  1  0
102103  1  0
102104  1  0
104105  1  0
105106  2  0
105107  1  0
107108  1  0
107109  1  0
109110  1  0
110111  2  0
110112  1  0
112113  1  0
112114  1  0
114115  1  0
115116  2  0
115117  1  0
117118  1  0
117119  1  0
119120  1  0
120121  2  0
120  5  1  0
 14  9  1  0
 68 11  1  0
  1122  1  0
  1123  1  0
  1124  1  0
  4125  1  0
  5126  1  1
  6127  1  0
  6128  1  0
  8129  1  0
  8130  1  0
 10131  1  0
 12132  1  0
 14133  1  0
 15134  1  0
 15135  1  0
 17136  1  0
 17137  1  0
 18138  1  1
 20139  1  0
 20140  1  0
 22141  1  0
 25142  1  1
 26143  1  0
 26144  1  0
 26145  1  0
 27146  1  0
 30147  1  1
 31148  1  0
 31149  1  0
 31150  1  0
 32151  1  0
 35152  1  6
 36153  1  0
 36154  1  0
 36155  1  0
 37156  1  0
 40157  1  1
 41158  1  0
 41159  1  0
 41160  1  0
 42161  1  0
 45162  1  1
 46163  1  0
 46164  1  0
 46165  1  0
 47166  1  0
 50167  1  6
 51168  1  0
 51169  1  0
 51170  1  0
 52171  1  0
 55172  1  6
 56173  1  0
 56174  1  0
 56175  1  0
 57176  1  0
 60177  1  6
 61178  1  0
 61179  1  0
 61180  1  0
 62181  1  0
 65182  1  6
 66183  1  0
 66184  1  0
 68185  1  0
 68186  1  0
 69187  1  0
 72188  1  1
 73189  1  0
 73190  1  0
 73191  1  0
 74192  1  0
 77193  1  1
 78194  1  0
 78195  1  0
 78196  1  0
 79197  1  0
 82198  1  1
 83199  1  0
 83200  1  0
 83201  1  0
 84202  1  0
 87203  1  1
 88204  1  0
 88205  1  0
 88206  1  0
 89207  1  0
 92208  1  1
 93209  1  0
 93210  1  0
 93211  1  0
 94212  1  0
 97213  1  6
 98214  1  0
 98215  1  0
 98216  1  0
 99217  1  0
102218  1  6
103219  1  0
103220  1  0
103221  1  0
104222  1  0
107223  1  1
108224  1  0
108225  1  0
108226  1  0
109227  1  0
112228  1  1
113229  1  0
113230  1  0
113231  1  0
114232  1  0
117233  1  1
118234  1  0
118235  1  0
118236  1  0
119237  1  0
M  END
