
     RDKit          3D

247249  0  0  0  0  0  0  0  0999 V2000
   -4.7368   -8.9515   -3.1183 C   0  0  0  0  0  0  0  0  0  0  0  0
   -4.0761   -9.0040   -1.7776 C   0  0  0  0  0  0  0  0  0  0  0  0
   -3.3582   -9.9937   -1.4718 O   0  0  0  0  0  0  0  0  0  0  0  0
   -4.2754   -7.9392   -0.8391 N   0  0  0  0  0  0  0  0  0  0  0  0
   -3.8334   -8.0329    0.5552 C   0  0  1  0  0  0  0  0  0  0  0  0
   -2.3568   -7.6175    0.7093 C   0  0  0  0  0  0  0  0  0  0  0  0
   -2.0200   -5.9775   -0.0501 S   0  0  0  0  0  0  0  0  0  0  0  0
   -0.7647   -5.4809    1.1745 C   0  0  0  0  0  0  0  0  0  0  0  0
   -0.0392   -4.2479    0.7156 C   0  0  0  0  0  0  0  0  0  0  0  0
   -0.1545   -3.0401    1.4270 C   0  0  0  0  0  0  0  0  0  0  0  0
    0.6467   -1.9338    1.0915 C   0  0  0  0  0  0  0  0  0  0  0  0
    1.5449   -2.0378    0.0147 C   0  0  0  0  0  0  0  0  0  0  0  0
    1.6461   -3.2293   -0.7236 C   0  0  0  0  0  0  0  0  0  0  0  0
    0.8404   -4.3251   -0.3772 C   0  0  0  0  0  0  0  0  0  0  0  0
    2.6612   -3.3612   -1.8225 C   0  0  0  0  0  0  0  0  0  0  0  0
    3.7739   -4.7990   -1.5604 S   0  0  0  0  0  0  0  0  0  0  0  0
    4.4519   -4.2657    0.0618 C   0  0  0  0  0  0  0  0  0  0  0  0
    5.2526   -5.3695    0.7668 C   0  0  1  0  0  0  0  0  0  0  0  0
    4.3680   -6.5126    1.2191 C   0  0  0  0  0  0  0  0  0  0  0  0
    3.8598   -7.4807    0.3008 N   0  0  0  0  0  0  0  0  0  0  0  0
    4.1078   -6.6374    2.4452 O   0  0  0  0  0  0  0  0  0  0  0  0
    6.3599   -5.8526   -0.0672 N   0  0  0  0  0  0  0  0  0  0  0  0
    7.6534   -5.2478    0.0166 C   0  0  0  0  0  0  0  0  0  0  0  0
    7.7290   -3.9870   -0.0121 O   0  0  0  0  0  0  0  0  0  0  0  0
    8.9259   -6.0624    0.0903 C   0  0  1  0  0  0  0  0  0  0  0  0
    8.6645   -7.5699    0.1813 C   0  0  0  0  0  0  0  0  0  0  0  0
    9.7638   -5.7807   -1.0823 N   0  0  0  0  0  0  0  0  0  0  0  0
   11.1492   -5.3964   -0.9949 C   0  0  0  0  0  0  0  0  0  0  0  0
   11.6207   -4.6401   -1.8867 O   0  0  0  0  0  0  0  0  0  0  0  0
   12.0461   -5.9052    0.1097 C   0  0  1  0  0  0  0  0  0  0  0  0
   13.4982   -6.0620   -0.3509 C   0  0  0  0  0  0  0  0  0  0  0  0
   11.9617   -5.0571    1.3085 N   0  0  0  0  0  0  0  0  0  0  0  0
   12.5848   -3.7712    1.4207 C   0  0  0  0  0  0  0  0  0  0  0  0
   13.6805   -3.6806    2.0406 O   0  0  0  0  0  0  0  0  0  0  0  0
   11.9450   -2.5326    0.8347 C   0  0  1  0  0  0  0  0  0  0  0  0
   10.4254   -2.5758    0.9790 C   0  0  0  0  0  0  0  0  0  0  0  0
   12.4571   -1.3305    1.5015 N   0  0  0  0  0  0  0  0  0  0  0  0
   12.3978   -0.0488    0.8623 C   0  0  0  0  0  0  0  0  0  0  0  0
   11.4612    0.7389    1.1660 O   0  0  0  0  0  0  0  0  0  0  0  0
   13.5202    0.4382   -0.0192 C   0  0  1  0  0  0  0  0  0  0  0  0
   14.1095   -0.6706   -0.8982 C   0  0  0  0  0  0  0  0  0  0  0  0
   13.0510    1.5233   -0.8798 N   0  0  0  0  0  0  0  0  0  0  0  0
   13.7872    2.7396   -0.9918 C   0  0  0  0  0  0  0  0  0  0  0  0
   14.7099    2.8285   -1.8489 O   0  0  0  0  0  0  0  0  0  0  0  0
   13.4643    3.9062   -0.1007 C   0  0  1  0  0  0  0  0  0  0  0  0
   14.5043    4.0363    1.0142 C   0  0  0  0  0  0  0  0  0  0  0  0
   13.4339    5.1366   -0.8990 N   0  0  0  0  0  0  0  0  0  0  0  0
   12.2754    5.9557   -1.1476 C   0  0  0  0  0  0  0  0  0  0  0  0
   12.4670    7.1509   -1.5131 O   0  0  0  0  0  0  0  0  0  0  0  0
   10.8443    5.4852   -0.9765 C   0  0  1  0  0  0  0  0  0  0  0  0
   10.5701    4.1295   -1.6503 C   0  0  0  0  0  0  0  0  0  0  0  0
   10.4726    5.4726    0.4436 N   0  0  0  0  0  0  0  0  0  0  0  0
    9.1377    5.2058    0.8987 C   0  0  0  0  0  0  0  0  0  0  0  0
    8.9236    4.1416    1.5353 O   0  0  0  0  0  0  0  0  0  0  0  0
    7.9915    6.1752    0.6987 C   0  0  1  0  0  0  0  0  0  0  0  0
    8.4439    7.5626    0.2137 C   0  0  0  0  0  0  0  0  0  0  0  0
    7.0180    5.5963   -0.2379 N   0  0  0  0  0  0  0  0  0  0  0  0
    5.7864    4.9930    0.1907 C   0  0  0  0  0  0  0  0  0  0  0  0
    5.5473    3.8045   -0.1627 O   0  0  0  0  0  0  0  0  0  0  0  0
    4.8115    5.7049    1.1128 C   0  0  1  0  0  0  0  0  0  0  0  0
    4.7117    7.2079    0.8054 C   0  0  0  0  0  0  0  0  0  0  0  0
    3.4831    5.0677    1.0637 N   0  0  0  0  0  0  0  0  0  0  0  0
    2.4449    5.4494    0.1465 C   0  0  0  0  0  0  0  0  0  0  0  0
    1.6822    6.4050    0.4473 O   0  0  0  0  0  0  0  0  0  0  0  0
    2.2613    4.7438   -1.1707 C   0  0  1  0  0  0  0  0  0  0  0  0
    3.0916    5.4198   -2.2594 C   0  0  0  0  0  0  0  0  0  0  0  0
    2.6262    3.3216   -1.0602 N   0  0  0  0  0  0  0  0  0  0  0  0
    1.9919    2.4224   -0.1398 C   0  0  0  0  0  0  0  0  0  0  0  0
    2.6931    1.5471    0.4389 O   0  0  0  0  0  0  0  0  0  0  0  0
    0.5101    2.5014    0.1644 C   0  0  1  0  0  0  0  0  0  0  0  0
   -0.1858    1.1201   -0.0234 C   0  0  0  0  0  0  0  0  0  0  0  0
   -0.8340    0.3653    1.5228 S   0  0  0  0  0  0  0  0  0  0  0  0
    0.6035   -0.6873    1.9374 C   0  0  0  0  0  0  0  0  0  0  0  0
    0.3238    3.0531    1.5117 N   0  0  0  0  0  0  0  0  0  0  0  0
   -0.6346    4.0561    1.9027 C   0  0  0  0  0  0  0  0  0  0  0  0
   -0.8722    4.2010    3.1344 O   0  0  0  0  0  0  0  0  0  0  0  0
   -1.4163    4.8861    0.9050 C   0  0  1  0  0  0  0  0  0  0  0  0
   -2.7458    4.2019    0.5899 C   0  0  0  0  0  0  0  0  0  0  0  0
   -1.6666    6.2407    1.4141 N   0  0  0  0  0  0  0  0  0  0  0  0
   -1.9645    7.3036    0.5069 C   0  0  0  0  0  0  0  0  0  0  0  0
   -1.0179    7.9033   -0.0785 O   0  0  0  0  0  0  0  0  0  0  0  0
   -3.3900    7.6820    0.2083 C   0  0  1  0  0  0  0  0  0  0  0  0
   -3.5894    9.1839    0.4063 C   0  0  0  0  0  0  0  0  0  0  0  0
   -3.7181    7.3095   -1.1678 N   0  0  0  0  0  0  0  0  0  0  0  0
   -4.9621    6.7185   -1.5771 C   0  0  0  0  0  0  0  0  0  0  0  0
   -4.9708    6.0009   -2.6169 O   0  0  0  0  0  0  0  0  0  0  0  0
   -6.2583    6.9346   -0.8271 C   0  0  1  0  0  0  0  0  0  0  0  0
   -7.3124    7.4779   -1.8069 C   0  0  0  0  0  0  0  0  0  0  0  0
   -6.6784    5.6782   -0.1934 N   0  0  0  0  0  0  0  0  0  0  0  0
   -8.0424    5.2662   -0.0476 C   0  0  0  0  0  0  0  0  0  0  0  0
   -8.4961    4.3926   -0.8326 O   0  0  0  0  0  0  0  0  0  0  0  0
   -8.9341    5.8022    1.0466 C   0  0  1  0  0  0  0  0  0  0  0  0
   -8.1386    6.4418    2.1858 C   0  0  0  0  0  0  0  0  0  0  0  0
   -9.8977    6.7582    0.4976 N   0  0  0  0  0  0  0  0  0  0  0  0
  -10.9903    6.3514   -0.3383 C   0  0  0  0  0  0  0  0  0  0  0  0
  -11.1273    6.8793   -1.4731 O   0  0  0  0  0  0  0  0  0  0  0  0
  -12.0504    5.4102    0.1735 C   0  0  1  0  0  0  0  0  0  0  0  0
  -13.3464    6.1815    0.4114 C   0  0  0  0  0  0  0  0  0  0  0  0
  -12.2761    4.3285   -0.7830 N   0  0  0  0  0  0  0  0  0  0  0  0
  -11.9117    2.9798   -0.4854 C   0  0  0  0  0  0  0  0  0  0  0  0
  -10.7139    2.6143   -0.6441 O   0  0  0  0  0  0  0  0  0  0  0  0
  -12.9427    1.9520   -0.0949 C   0  0  1  0  0  0  0  0  0  0  0  0
  -14.1529    2.5916    0.5929 C   0  0  0  0  0  0  0  0  0  0  0  0
  -13.3904    1.2205   -1.2850 N   0  0  0  0  0  0  0  0  0  0  0  0
  -13.4734   -0.2168   -1.3877 C   0  0  0  0  0  0  0  0  0  0  0  0
  -14.2414   -0.7033   -2.2600 O   0  0  0  0  0  0  0  0  0  0  0  0
  -12.7432   -1.1506   -0.4393 C   0  0  1  0  0  0  0  0  0  0  0  0
  -13.6304   -1.4100    0.7864 C   0  0  0  0  0  0  0  0  0  0  0  0
  -12.3995   -2.4218   -1.0947 N   0  0  0  0  0  0  0  0  0  0  0  0
  -11.6832   -3.4576   -0.4016 C   0  0  0  0  0  0  0  0  0  0  0  0
  -10.8574   -3.1463    0.4968 O   0  0  0  0  0  0  0  0  0  0  0  0
  -11.8502   -4.9145   -0.7600 C   0  0  1  0  0  0  0  0  0  0  0  0
  -13.2274   -5.2184   -1.3607 C   0  0  0  0  0  0  0  0  0  0  0  0
  -10.7939   -5.3165   -1.6942 N   0  0  0  0  0  0  0  0  0  0  0  0
   -9.8017   -6.3375   -1.4611 C   0  0  0  0  0  0  0  0  0  0  0  0
   -8.9426   -6.5452   -2.3569 O   0  0  0  0  0  0  0  0  0  0  0  0
   -9.8078   -7.2211   -0.2235 C   0  0  1  0  0  0  0  0  0  0  0  0
  -10.9292   -8.2617   -0.3149 C   0  0  0  0  0  0  0  0  0  0  0  0
   -8.5214   -7.9209   -0.0833 N   0  0  0  0  0  0  0  0  0  0  0  0
   -8.0445   -8.3003    1.2085 C   0  0  0  0  0  0  0  0  0  0  0  0
   -8.2802   -9.4647    1.6365 O   0  0  0  0  0  0  0  0  0  0  0  0
   -7.1995   -7.3576    2.0175 C   0  0  1  0  0  0  0  0  0  0  0  0
   -7.7753   -7.1621    3.4261 C   0  0  0  0  0  0  0  0  0  0  0  0
   -5.8398   -7.8840    2.0978 N   0  0  0  0  0  0  0  0  0  0  0  0
   -4.7582   -7.2304    1.4290 C   0  0  0  0  0  0  0  0  0  0  0  0
   -4.6568   -5.9755    1.4869 O   0  0  0  0  0  0  0  0  0  0  0  0
   -5.8378   -8.8851   -2.9829 H   0  0  0  0  0  0  0  0  0  0  0  0
   -4.3770   -8.0607   -3.6766 H   0  0  0  0  0  0  0  0  0  0  0  0
   -4.5020   -9.8641   -3.7010 H   0  0  0  0  0  0  0  0  0  0  0  0
   -4.8288   -7.1059   -1.1459 H   0  0  0  0  0  0  0  0  0  0  0  0
   -3.9108   -9.0932    0.8807 H   0  0  0  0  0  0  0  0  0  0  0  0
   -1.7111   -8.3779    0.2049 H   0  0  0  0  0  0  0  0  0  0  0  0
   -2.0891   -7.6265    1.7932 H   0  0  0  0  0  0  0  0  0  0  0  0
   -0.0249   -6.2997    1.3040 H   0  0  0  0  0  0  0  0  0  0  0  0
   -1.2655   -5.3226    2.1578 H   0  0  0  0  0  0  0  0  0  0  0  0
   -0.8200   -2.9825    2.2918 H   0  0  0  0  0  0  0  0  0  0  0  0
    2.1827   -1.2002   -0.2275 H   0  0  0  0  0  0  0  0  0  0  0  0
    0.9328   -5.2577   -0.9263 H   0  0  0  0  0  0  0  0  0  0  0  0
    2.1283   -3.4987   -2.7852 H   0  0  0  0  0  0  0  0  0  0  0  0
    3.2800   -2.4422   -1.9115 H   0  0  0  0  0  0  0  0  0  0  0  0
    5.0988   -3.3782   -0.1026 H   0  0  0  0  0  0  0  0  0  0  0  0
    3.6379   -3.9583    0.7550 H   0  0  0  0  0  0  0  0  0  0  0  0
    5.6875   -4.9053    1.6834 H   0  0  0  0  0  0  0  0  0  0  0  0
    4.1595   -7.5123   -0.6962 H   0  0  0  0  0  0  0  0  0  0  0  0
    3.2455   -8.2511    0.6471 H   0  0  0  0  0  0  0  0  0  0  0  0
    6.2525   -6.7201   -0.6281 H   0  0  0  0  0  0  0  0  0  0  0  0
    9.4508   -5.7556    1.0244 H   0  0  0  0  0  0  0  0  0  0  0  0
    9.6158   -8.1176    0.3510 H   0  0  0  0  0  0  0  0  0  0  0  0
    7.9812   -7.7925    1.0292 H   0  0  0  0  0  0  0  0  0  0  0  0
    8.2150   -7.9424   -0.7637 H   0  0  0  0  0  0  0  0  0  0  0  0
    9.2875   -5.6297   -1.9959 H   0  0  0  0  0  0  0  0  0  0  0  0
   11.6942   -6.9208    0.3822 H   0  0  0  0  0  0  0  0  0  0  0  0
   14.1182   -6.4666    0.4809 H   0  0  0  0  0  0  0  0  0  0  0  0
   13.9293   -5.0862   -0.6706 H   0  0  0  0  0  0  0  0  0  0  0  0
   13.5519   -6.7673   -1.2067 H   0  0  0  0  0  0  0  0  0  0  0  0
   11.6724   -5.5161    2.2011 H   0  0  0  0  0  0  0  0  0  0  0  0
   12.1967   -2.5019   -0.2448 H   0  0  0  0  0  0  0  0  0  0  0  0
   10.1223   -2.8620    2.0120 H   0  0  0  0  0  0  0  0  0  0  0  0
   10.0236   -3.3102    0.2587 H   0  0  0  0  0  0  0  0  0  0  0  0
    9.9761   -1.5915    0.7261 H   0  0  0  0  0  0  0  0  0  0  0  0
   12.4306   -1.3251    2.5485 H   0  0  0  0  0  0  0  0  0  0  0  0
   14.3311    0.8091    0.6459 H   0  0  0  0  0  0  0  0  0  0  0  0
   14.9637   -0.2703   -1.4826 H   0  0  0  0  0  0  0  0  0  0  0  0
   14.4876   -1.5067   -0.2702 H   0  0  0  0  0  0  0  0  0  0  0  0
   13.3437   -1.0491   -1.6097 H   0  0  0  0  0  0  0  0  0  0  0  0
   12.2998    1.3300   -1.5827 H   0  0  0  0  0  0  0  0  0  0  0  0
   12.4882    3.7322    0.3885 H   0  0  0  0  0  0  0  0  0  0  0  0
   14.4654    3.1492    1.6835 H   0  0  0  0  0  0  0  0  0  0  0  0
   14.2893    4.9442    1.6227 H   0  0  0  0  0  0  0  0  0  0  0  0
   15.5304    4.1290    0.5883 H   0  0  0  0  0  0  0  0  0  0  0  0
   14.3455    5.4799   -1.2746 H   0  0  0  0  0  0  0  0  0  0  0  0
   10.2071    6.2196   -1.5056 H   0  0  0  0  0  0  0  0  0  0  0  0
   11.1716    4.0210   -2.5821 H   0  0  0  0  0  0  0  0  0  0  0  0
    9.4968    4.0647   -1.9268 H   0  0  0  0  0  0  0  0  0  0  0  0
   10.7877    3.2821   -0.9729 H   0  0  0  0  0  0  0  0  0  0  0  0
   11.2261    5.4918    1.1678 H   0  0  0  0  0  0  0  0  0  0  0  0
    7.5199    6.3164    1.6952 H   0  0  0  0  0  0  0  0  0  0  0  0
    7.6784    8.3304    0.4449 H   0  0  0  0  0  0  0  0  0  0  0  0
    8.5903    7.5726   -0.8822 H   0  0  0  0  0  0  0  0  0  0  0  0
    9.3857    7.8747    0.7133 H   0  0  0  0  0  0  0  0  0  0  0  0
    7.3597    5.3448   -1.1942 H   0  0  0  0  0  0  0  0  0  0  0  0
    5.2090    5.5987    2.1486 H   0  0  0  0  0  0  0  0  0  0  0  0
    5.6287    7.7307    1.1293 H   0  0  0  0  0  0  0  0  0  0  0  0
    3.8816    7.6558    1.3852 H   0  0  0  0  0  0  0  0  0  0  0  0
    4.5405    7.3767   -0.2812 H   0  0  0  0  0  0  0  0  0  0  0  0
    3.1920    4.4877    1.8824 H   0  0  0  0  0  0  0  0  0  0  0  0
    1.2016    4.8322   -1.4872 H   0  0  0  0  0  0  0  0  0  0  0  0
    4.1854    5.3200   -2.0535 H   0  0  0  0  0  0  0  0  0  0  0  0
    2.8783    4.9468   -3.2453 H   0  0  0  0  0  0  0  0  0  0  0  0
    2.8368    6.4983   -2.3359 H   0  0  0  0  0  0  0  0  0  0  0  0
    3.4775    2.9695   -1.5504 H   0  0  0  0  0  0  0  0  0  0  0  0
    0.0449    3.1611   -0.5956 H   0  0  0  0  0  0  0  0  0  0  0  0
    0.4616    0.4103   -0.5791 H   0  0  0  0  0  0  0  0  0  0  0  0
   -1.0706    1.2624   -0.6864 H   0  0  0  0  0  0  0  0  0  0  0  0
    0.5075   -0.9830    3.0086 H   0  0  0  0  0  0  0  0  0  0  0  0
    1.5457   -0.1124    1.8673 H   0  0  0  0  0  0  0  0  0  0  0  0
    0.8653    2.5981    2.2866 H   0  0  0  0  0  0  0  0  0  0  0  0
   -0.8267    4.9830   -0.0366 H   0  0  0  0  0  0  0  0  0  0  0  0
   -3.2627    4.7327   -0.2397 H   0  0  0  0  0  0  0  0  0  0  0  0
   -3.4032    4.2152    1.4884 H   0  0  0  0  0  0  0  0  0  0  0  0
   -2.5719    3.1479    0.2719 H   0  0  0  0  0  0  0  0  0  0  0  0
   -1.3112    6.5255    2.3586 H   0  0  0  0  0  0  0  0  0  0  0  0
   -4.0513    7.1344    0.9207 H   0  0  0  0  0  0  0  0  0  0  0  0
   -2.9360    9.7604   -0.2884 H   0  0  0  0  0  0  0  0  0  0  0  0
   -4.6429    9.4692    0.1987 H   0  0  0  0  0  0  0  0  0  0  0  0
   -3.3513    9.4692    1.4527 H   0  0  0  0  0  0  0  0  0  0  0  0
   -2.9754    7.4093   -1.8987 H   0  0  0  0  0  0  0  0  0  0  0  0
   -6.1197    7.7005   -0.0368 H   0  0  0  0  0  0  0  0  0  0  0  0
   -7.6301    6.6870   -2.5155 H   0  0  0  0  0  0  0  0  0  0  0  0
   -6.8986    8.3345   -2.3875 H   0  0  0  0  0  0  0  0  0  0  0  0
   -8.1952    7.8555   -1.2606 H   0  0  0  0  0  0  0  0  0  0  0  0
   -5.9581    4.9221   -0.0777 H   0  0  0  0  0  0  0  0  0  0  0  0
   -9.4844    4.9416    1.4916 H   0  0  0  0  0  0  0  0  0  0  0  0
   -7.6269    7.3664    1.8391 H   0  0  0  0  0  0  0  0  0  0  0  0
   -8.8182    6.7115    3.0196 H   0  0  0  0  0  0  0  0  0  0  0  0
   -7.3764    5.7318    2.5710 H   0  0  0  0  0  0  0  0  0  0  0  0
   -9.6532    7.7755    0.4975 H   0  0  0  0  0  0  0  0  0  0  0  0
  -11.7305    4.9805    1.1508 H   0  0  0  0  0  0  0  0  0  0  0  0
  -13.7179    6.6329   -0.5389 H   0  0  0  0  0  0  0  0  0  0  0  0
  -14.1337    5.5125    0.8120 H   0  0  0  0  0  0  0  0  0  0  0  0
  -13.1775    6.9967    1.1456 H   0  0  0  0  0  0  0  0  0  0  0  0
  -12.6937    4.5402   -1.7209 H   0  0  0  0  0  0  0  0  0  0  0  0
  -12.4750    1.2784    0.6474 H   0  0  0  0  0  0  0  0  0  0  0  0
  -14.8670    1.8027    0.9146 H   0  0  0  0  0  0  0  0  0  0  0  0
  -13.8318    3.1545    1.4934 H   0  0  0  0  0  0  0  0  0  0  0  0
  -14.6835    3.2790   -0.1013 H   0  0  0  0  0  0  0  0  0  0  0  0
  -13.8123    1.7808   -2.0589 H   0  0  0  0  0  0  0  0  0  0  0  0
  -11.7951   -0.6709   -0.1169 H   0  0  0  0  0  0  0  0  0  0  0  0
  -14.5347   -1.9874    0.4963 H   0  0  0  0  0  0  0  0  0  0  0  0
  -13.9559   -0.4559    1.2512 H   0  0  0  0  0  0  0  0  0  0  0  0
  -13.0663   -1.9831    1.5505 H   0  0  0  0  0  0  0  0  0  0  0  0
  -12.6574   -2.5822   -2.0941 H   0  0  0  0  0  0  0  0  0  0  0  0
  -11.7848   -5.4899    0.1836 H   0  0  0  0  0  0  0  0  0  0  0  0
  -14.0316   -4.8745   -0.6708 H   0  0  0  0  0  0  0  0  0  0  0  0
  -13.3468   -6.3135   -1.5131 H   0  0  0  0  0  0  0  0  0  0  0  0
  -13.3539   -4.7283   -2.3510 H   0  0  0  0  0  0  0  0  0  0  0  0
  -10.7480   -4.8094   -2.6075 H   0  0  0  0  0  0  0  0  0  0  0  0
   -9.9569   -6.5836    0.6751 H   0  0  0  0  0  0  0  0  0  0  0  0
  -10.8306   -8.8607   -1.2447 H   0  0  0  0  0  0  0  0  0  0  0  0
  -10.8823   -8.9504    0.5545 H   0  0  0  0  0  0  0  0  0  0  0  0
  -11.9241   -7.7771   -0.3004 H   0  0  0  0  0  0  0  0  0  0  0  0
   -8.1818   -8.4898   -0.8880 H   0  0  0  0  0  0  0  0  0  0  0  0
   -7.2014   -6.3641    1.5118 H   0  0  0  0  0  0  0  0  0  0  0  0
   -7.8411   -8.1298    3.9724 H   0  0  0  0  0  0  0  0  0  0  0  0
   -7.1202   -6.4755    4.0023 H   0  0  0  0  0  0  0  0  0  0  0  0
   -8.7909   -6.7104    3.3548 H   0  0  0  0  0  0  0  0  0  0  0  0
   -5.7081   -8.8709    2.4044 H   0  0  0  0  0  0  0  0  0  0  0  0
  1  2  1  0
  2  3  2  0
  2  4  1  0
  4  5  1  0
  5  6  1  0
  6  7  1  0
  7  8  1  0
  8  9  1  0
  9 10  2  0
 10 11  1  0
 11 12  2  0
 12 13  1  0
 13 14  2  0
 13 15  1  0
 15 16  1  0
 16 17  1  0
 17 18  1  0
 18 19  1  0
 19 20  1  0
 19 21  2  0
 18 22  1  0
 22 23  1  0
 23 24  2  0
 23 25  1  0
 25 26  1  0
 25 27  1  0
 27 28  1  0
 28 29  2  0
 28 30  1  0
 30 31  1  0
 30 32  1  0
 32 33  1  0
 33 34  2  0
 33 35  1  0
 35 36  1  0
 35 37  1  0
 37 38  1  0
 38 39  2  0
 38 40  1  0
 40 41  1  0
 40 42  1  0
 42 43  1  0
 43 44  2  0
 43 45  1  0
 45 46  1  0
 45 47  1  0
 47 48  1  0
 48 49  2  0
 48 50  1  0
 50 51  1  0
 50 52  1  0
 52 53  1  0
 53 54  2  0
 53 55  1  0
 55 56  1  0
 55 57  1  0
 57 58  1  0
 58 59  2  0
 58 60  1  0
 60 61  1  0
 60 62  1  0
 62 63  1  0
 63 64  2  0
 63 65  1  0
 65 66  1  0
 65 67  1  0
 67 68  1  0
 68 69  2  0
 68 70  1  0
 70 71  1  0
 71 72  1  0
 72 73  1  0
 70 74  1  0
 74 75  1  0
 75 76  2  0
 75 77  1  0
 77 78  1  0
 77 79  1  0
 79 80  1  0
 80 81  2  0
 80 82  1  0
 82 83  1  0
 82 84  1  0
 84 85  1  0
 85 86  2  0
 85 87  1  0
 87 88  1  0
 87 89  1  0
 89 90  1  0
 90 91  2  0
 90 92  1  0
 92 93  1  0
 92 94  1  0
 94 95  1  0
 95 96  2  0
 95 97  1  0
 97 98  1  0
 97 99  1  0
 99100  1  0
100101  2  0
100102  1  0
102103  1  0
102104  1  0
104105  1  0
105106  2  0
105107  1  0
107108  1  0
107109  1  0
109110  1  0
110111  2  0
110112  1  0
112113  1  0
112114  1  0
114115  1  0
115116  2  0
115117  1  0
117118  1  0
117119  1  0
119120  1  0
120121  2  0
120122  1  0
122123  1  0
122124  1  0
124125  1  0
125126  2  0
125  5  1  0
 14  9  1  0
 73 11  1  0
  1127  1  0
  1128  1  0
  1129  1  0
  4130  1  0
  5131  1  1
  6132  1  0
  6133  1  0
  8134  1  0
  8135  1  0
 10136  1  0
 12137  1  0
 14138  1  0
 15139  1  0
 15140  1  0
 17141  1  0
 17142  1  0
 18143  1  1
 20144  1  0
 20145  1  0
 22146  1  0
 25147  1  1
 26148  1  0
 26149  1  0
 26150  1  0
 27151  1  0
 30152  1  1
 31153  1  0
 31154  1  0
 31155  1  0
 32156  1  0
 35157  1  6
 36158  1  0
 36159  1  0
 36160  1  0
 37161  1  0
 40162  1  1
 41163  1  0
 41164  1  0
 41165  1  0
 42166  1  0
 45167  1  1
 46168  1  0
 46169  1  0
 46170  1  0
 47171  1  0
 50172  1  6
 51173  1  0
 51174  1  0
 51175  1  0
 52176  1  0
 55177  1  1
 56178  1  0
 56179  1  0
 56180  1  0
 57181  1  0
 60182  1  1
 61183  1  0
 61184  1  0
 61185  1  0
 62186  1  0
 65187  1  6
 66188  1  0
 66189  1  0
 66190  1  0
 67191  1  0
 70192  1  6
 71193  1  0
 71194  1  0
 73195  1  0
 73196  1  0
 74197  1  0
 77198  1  6
 78199  1  0
 78200  1  0
 78201  1  0
 79202  1  0
 82203  1  1
 83204  1  0
 83205  1  0
 83206  1  0
 84207  1  0
 87208  1  1
 88209  1  0
 88210  1  0
 88211  1  0
 89212  1  0
 92213  1  1
 93214  1  0
 93215  1  0
 93216  1  0
 94217  1  0
 97218  1  1
 98219  1  0
 98220  1  0
 98221  1  0
 99222  1  0
102223  1  1
103224  1  0
103225  1  0
103226  1  0
104227  1  0
107228  1  1
108229  1  0
108230  1  0
108231  1  0
109232  1  0
112233  1  1
113234  1  0
113235  1  0
113236  1  0
114237  1  0
117238  1  1
118239  1  0
118240  1  0
118241  1  0
119242  1  0
122243  1  6
123244  1  0
123245  1  0
123246  1  0
124247  1  0
M  END
