
     RDKit          3D

257259  0  0  0  0  0  0  0  0999 V2000
   -2.3239   -7.5869    0.6419 C   0  0  0  0  0  0  0  0  0  0  0  0
   -3.3385   -6.7180    1.3312 C   0  0  0  0  0  0  0  0  0  0  0  0
   -3.3240   -6.6931    2.5888 O   0  0  0  0  0  0  0  0  0  0  0  0
   -4.2963   -5.8965    0.6340 N   0  0  0  0  0  0  0  0  0  0  0  0
   -4.5250   -5.8312   -0.8181 C   0  0  1  0  0  0  0  0  0  0  0  0
   -3.3433   -5.1330   -1.5400 C   0  0  0  0  0  0  0  0  0  0  0  0
   -3.3811   -3.3185   -1.3054 S   0  0  0  0  0  0  0  0  0  0  0  0
   -2.5690   -3.2433    0.3351 C   0  0  0  0  0  0  0  0  0  0  0  0
   -1.2340   -2.5584    0.2265 C   0  0  0  0  0  0  0  0  0  0  0  0
   -1.0183   -1.3234    0.8539 C   0  0  0  0  0  0  0  0  0  0  0  0
    0.2457   -0.7254    0.8302 C   0  0  0  0  0  0  0  0  0  0  0  0
    1.3077   -1.3822    0.1805 C   0  0  0  0  0  0  0  0  0  0  0  0
    1.1250   -2.6420   -0.4065 C   0  0  0  0  0  0  0  0  0  0  0  0
   -0.1650   -3.2134   -0.4112 C   0  0  0  0  0  0  0  0  0  0  0  0
    2.2853   -3.3093   -1.1161 C   0  0  0  0  0  0  0  0  0  0  0  0
    2.2490   -5.1407   -1.0150 S   0  0  0  0  0  0  0  0  0  0  0  0
    2.6851   -5.2791    0.7590 C   0  0  0  0  0  0  0  0  0  0  0  0
    4.2019   -5.2403    0.9736 C   0  0  1  0  0  0  0  0  0  0  0  0
    4.5286   -5.2488    2.4448 C   0  0  0  0  0  0  0  0  0  0  0  0
    4.1722   -4.1320    3.2621 N   0  0  0  0  0  0  0  0  0  0  0  0
    5.1239   -6.2327    2.9660 O   0  0  0  0  0  0  0  0  0  0  0  0
    4.8321   -6.3906    0.3049 N   0  0  0  0  0  0  0  0  0  0  0  0
    5.8108   -6.3274   -0.7513 C   0  0  0  0  0  0  0  0  0  0  0  0
    5.9246   -7.3239   -1.5151 O   0  0  0  0  0  0  0  0  0  0  0  0
    6.7197   -5.1393   -1.0084 C   0  0  1  0  0  0  0  0  0  0  0  0
    5.9803   -3.9929   -1.7308 C   0  0  0  0  0  0  0  0  0  0  0  0
    7.3502   -4.6766    0.2290 N   0  0  0  0  0  0  0  0  0  0  0  0
    8.7687   -4.5143    0.3536 C   0  0  0  0  0  0  0  0  0  0  0  0
    9.2301   -3.3526    0.5125 O   0  0  0  0  0  0  0  0  0  0  0  0
    9.7207   -5.6811    0.3806 C   0  0  1  0  0  0  0  0  0  0  0  0
    9.0342   -7.0112    0.7123 C   0  0  0  0  0  0  0  0  0  0  0  0
   10.4137   -5.7888   -0.9052 N   0  0  0  0  0  0  0  0  0  0  0  0
   11.8347   -5.9307   -1.0895 C   0  0  0  0  0  0  0  0  0  0  0  0
   12.3157   -5.7236   -2.2372 O   0  0  0  0  0  0  0  0  0  0  0  0
   12.7772   -6.3583    0.0166 C   0  0  1  0  0  0  0  0  0  0  0  0
   13.4068   -7.7108   -0.3389 C   0  0  0  0  0  0  0  0  0  0  0  0
   13.8165   -5.3347    0.2059 N   0  0  0  0  0  0  0  0  0  0  0  0
   13.5012   -3.9580    0.4710 C   0  0  0  0  0  0  0  0  0  0  0  0
   12.4074   -3.6674    1.0252 O   0  0  0  0  0  0  0  0  0  0  0  0
   14.4039   -2.8319    0.0214 C   0  0  1  0  0  0  0  0  0  0  0  0
   15.8384   -3.2921   -0.2573 C   0  0  0  0  0  0  0  0  0  0  0  0
   13.8489   -2.2301   -1.1997 N   0  0  0  0  0  0  0  0  0  0  0  0
   13.6247   -0.8252   -1.4348 C   0  0  0  0  0  0  0  0  0  0  0  0
   13.2470   -0.4729   -2.5810 O   0  0  0  0  0  0  0  0  0  0  0  0
   13.8523    0.2411   -0.3759 C   0  0  1  0  0  0  0  0  0  0  0  0
   15.3508    0.4991   -0.1749 C   0  0  0  0  0  0  0  0  0  0  0  0
   13.2157    1.5141   -0.7485 N   0  0  0  0  0  0  0  0  0  0  0  0
   12.8766    2.4973    0.2515 C   0  0  0  0  0  0  0  0  0  0  0  0
   12.4942    2.1137    1.3914 O   0  0  0  0  0  0  0  0  0  0  0  0
   13.0923    3.9837    0.0348 C   0  0  1  0  0  0  0  0  0  0  0  0
   13.5120    4.3601   -1.3861 C   0  0  0  0  0  0  0  0  0  0  0  0
   11.8755    4.7277    0.3886 N   0  0  0  0  0  0  0  0  0  0  0  0
   11.9236    6.1003    0.8113 C   0  0  0  0  0  0  0  0  0  0  0  0
   13.0035    6.5889    1.2415 O   0  0  0  0  0  0  0  0  0  0  0  0
   10.6989    6.9697    0.7303 C   0  0  1  0  0  0  0  0  0  0  0  0
   10.3270    7.1818   -0.7421 C   0  0  0  0  0  0  0  0  0  0  0  0
    9.5920    6.3540    1.4696 N   0  0  0  0  0  0  0  0  0  0  0  0
    8.2567    6.8734    1.4431 C   0  0  0  0  0  0  0  0  0  0  0  0
    8.0711    8.1179    1.3435 O   0  0  0  0  0  0  0  0  0  0  0  0
    7.0733    5.9422    1.3847 C   0  0  1  0  0  0  0  0  0  0  0  0
    7.3752    4.5766    2.0173 C   0  0  0  0  0  0  0  0  0  0  0  0
    5.9233    6.5474    2.0714 N   0  0  0  0  0  0  0  0  0  0  0  0
    4.7437    7.0671    1.4223 C   0  0  0  0  0  0  0  0  0  0  0  0
    4.1218    8.0041    1.9857 O   0  0  0  0  0  0  0  0  0  0  0  0
    4.2079    6.5479    0.1065 C   0  0  1  0  0  0  0  0  0  0  0  0
    4.7933    7.3559   -1.0617 C   0  0  0  0  0  0  0  0  0  0  0  0
    4.4491    5.1088   -0.0617 N   0  0  0  0  0  0  0  0  0  0  0  0
    3.7964    4.0626    0.6755 C   0  0  0  0  0  0  0  0  0  0  0  0
    4.4199    2.9860    0.8782 O   0  0  0  0  0  0  0  0  0  0  0  0
    2.3472    4.1330    1.0970 C   0  0  1  0  0  0  0  0  0  0  0  0
    2.1304    4.9252    2.3933 C   0  0  0  0  0  0  0  0  0  0  0  0
    1.5051    4.6506    0.0195 N   0  0  0  0  0  0  0  0  0  0  0  0
    1.4282    3.9953   -1.2569 C   0  0  0  0  0  0  0  0  0  0  0  0
    2.4070    4.0717   -2.0509 O   0  0  0  0  0  0  0  0  0  0  0  0
    0.2262    3.1606   -1.6580 C   0  0  1  0  0  0  0  0  0  0  0  0
    0.1787    1.8187   -0.9064 C   0  0  0  0  0  0  0  0  0  0  0  0
   -0.4994    1.9557    0.7914 S   0  0  0  0  0  0  0  0  0  0  0  0
    0.4718    0.5842    1.5330 C   0  0  0  0  0  0  0  0  0  0  0  0
   -1.0602    3.8756   -1.6054 N   0  0  0  0  0  0  0  0  0  0  0  0
   -1.2725    5.1233   -0.9375 C   0  0  0  0  0  0  0  0  0  0  0  0
   -1.4377    5.1264    0.3125 O   0  0  0  0  0  0  0  0  0  0  0  0
   -1.3576    6.4219   -1.7024 C   0  0  1  0  0  0  0  0  0  0  0  0
   -0.7066    6.3419   -3.0896 C   0  0  0  0  0  0  0  0  0  0  0  0
   -2.7544    6.8433   -1.8088 N   0  0  0  0  0  0  0  0  0  0  0  0
   -3.5154    7.1895   -0.6418 C   0  0  0  0  0  0  0  0  0  0  0  0
   -2.9566    7.8242    0.2985 O   0  0  0  0  0  0  0  0  0  0  0  0
   -4.9804    6.8268   -0.5120 C   0  0  1  0  0  0  0  0  0  0  0  0
   -5.3760    5.7100   -1.4868 C   0  0  0  0  0  0  0  0  0  0  0  0
   -5.2523    6.3954    0.8603 N   0  0  0  0  0  0  0  0  0  0  0  0
   -6.3714    6.8492    1.6406 C   0  0  0  0  0  0  0  0  0  0  0  0
   -6.1513    7.3471    2.7760 O   0  0  0  0  0  0  0  0  0  0  0  0
   -7.7982    6.6609    1.1878 C   0  0  1  0  0  0  0  0  0  0  0  0
   -8.1766    7.6820    0.1070 C   0  0  0  0  0  0  0  0  0  0  0  0
   -8.0089    5.2727    0.7347 N   0  0  0  0  0  0  0  0  0  0  0  0
   -9.3017    4.6582    0.6822 C   0  0  0  0  0  0  0  0  0  0  0  0
   -9.5262    3.6444    1.3988 O   0  0  0  0  0  0  0  0  0  0  0  0
  -10.3684    5.1545   -0.2550 C   0  0  1  0  0  0  0  0  0  0  0  0
  -10.8665    4.0093   -1.1564 C   0  0  0  0  0  0  0  0  0  0  0  0
  -11.4459    5.7897    0.5164 N   0  0  0  0  0  0  0  0  0  0  0  0
  -12.8014    5.3280    0.5425 C   0  0  0  0  0  0  0  0  0  0  0  0
  -13.6717    5.9189   -0.1475 O   0  0  0  0  0  0  0  0  0  0  0  0
  -13.1995    4.2241    1.4826 C   0  0  1  0  0  0  0  0  0  0  0  0
  -13.7024    4.8146    2.7963 C   0  0  0  0  0  0  0  0  0  0  0  0
  -14.2372    3.3860    0.8796 N   0  0  0  0  0  0  0  0  0  0  0  0
  -13.9047    2.1906    0.1690 C   0  0  0  0  0  0  0  0  0  0  0  0
  -13.8504    2.2266   -1.0907 O   0  0  0  0  0  0  0  0  0  0  0  0
  -13.8034    0.8566    0.8698 C   0  0  1  0  0  0  0  0  0  0  0  0
  -13.2703    0.9794    2.3005 C   0  0  0  0  0  0  0  0  0  0  0  0
  -15.1271    0.2331    0.8999 N   0  0  0  0  0  0  0  0  0  0  0  0
  -15.4800   -1.0781    0.4143 C   0  0  0  0  0  0  0  0  0  0  0  0
  -16.6223   -1.5328    0.6949 O   0  0  0  0  0  0  0  0  0  0  0  0
  -14.5734   -1.9320   -0.4529 C   0  0  1  0  0  0  0  0  0  0  0  0
  -14.3012   -1.2484   -1.8024 C   0  0  0  0  0  0  0  0  0  0  0  0
  -13.3323   -2.2764    0.2542 N   0  0  0  0  0  0  0  0  0  0  0  0
  -12.2383   -2.9840   -0.3465 C   0  0  0  0  0  0  0  0  0  0  0  0
  -11.0658   -2.6115   -0.0748 O   0  0  0  0  0  0  0  0  0  0  0  0
  -12.4627   -4.1915   -1.2300 C   0  0  1  0  0  0  0  0  0  0  0  0
  -11.4991   -4.2624   -2.4238 C   0  0  0  0  0  0  0  0  0  0  0  0
  -12.5060   -5.4343   -0.4479 N   0  0  0  0  0  0  0  0  0  0  0  0
  -11.4040   -6.2638   -0.0162 C   0  0  0  0  0  0  0  0  0  0  0  0
  -11.6353   -7.4801    0.2424 O   0  0  0  0  0  0  0  0  0  0  0  0
  -10.0005   -5.7542    0.1980 C   0  0  1  0  0  0  0  0  0  0  0  0
   -9.5947   -5.8930    1.6693 C   0  0  0  0  0  0  0  0  0  0  0  0
   -9.0758   -6.4380   -0.7153 N   0  0  0  0  0  0  0  0  0  0  0  0
   -8.3489   -7.6239   -0.3709 C   0  0  0  0  0  0  0  0  0  0  0  0
   -8.8831   -8.7556   -0.5603 O   0  0  0  0  0  0  0  0  0  0  0  0
   -6.9402   -7.5260    0.1421 C   0  0  1  0  0  0  0  0  0  0  0  0
   -6.7501   -8.3826    1.3989 C   0  0  0  0  0  0  0  0  0  0  0  0
   -5.9994   -7.9624   -0.8948 N   0  0  0  0  0  0  0  0  0  0  0  0
   -4.8762   -7.2007   -1.3773 C   0  0  0  0  0  0  0  0  0  0  0  0
   -4.1779   -7.6882   -2.3088 O   0  0  0  0  0  0  0  0  0  0  0  0
   -1.3036   -7.1968    0.8480 H   0  0  0  0  0  0  0  0  0  0  0  0
   -2.4568   -7.6331   -0.4510 H   0  0  0  0  0  0  0  0  0  0  0  0
   -2.4024   -8.6212    1.0395 H   0  0  0  0  0  0  0  0  0  0  0  0
   -4.8970   -5.2784    1.2331 H   0  0  0  0  0  0  0  0  0  0  0  0
   -5.4209   -5.1968   -1.0020 H   0  0  0  0  0  0  0  0  0  0  0  0
   -2.3558   -5.5286   -1.2279 H   0  0  0  0  0  0  0  0  0  0  0  0
   -3.4376   -5.2954   -2.6354 H   0  0  0  0  0  0  0  0  0  0  0  0
   -3.2454   -2.6786    1.0166 H   0  0  0  0  0  0  0  0  0  0  0  0
   -2.3986   -4.2420    0.7861 H   0  0  0  0  0  0  0  0  0  0  0  0
   -1.8392   -0.8125    1.3448 H   0  0  0  0  0  0  0  0  0  0  0  0
    2.2840   -0.9218    0.1487 H   0  0  0  0  0  0  0  0  0  0  0  0
   -0.3456   -4.1712   -0.8800 H   0  0  0  0  0  0  0  0  0  0  0  0
    2.2713   -3.0251   -2.1877 H   0  0  0  0  0  0  0  0  0  0  0  0
    3.2418   -2.9320   -0.7033 H   0  0  0  0  0  0  0  0  0  0  0  0
    2.2856   -6.2501    1.1380 H   0  0  0  0  0  0  0  0  0  0  0  0
    2.1871   -4.4790    1.3369 H   0  0  0  0  0  0  0  0  0  0  0  0
    4.5830   -4.2906    0.5594 H   0  0  0  0  0  0  0  0  0  0  0  0
    4.3698   -4.1407    4.2894 H   0  0  0  0  0  0  0  0  0  0  0  0
    3.6990   -3.3017    2.8450 H   0  0  0  0  0  0  0  0  0  0  0  0
    4.4711   -7.3453    0.5528 H   0  0  0  0  0  0  0  0  0  0  0  0
    7.5109   -5.4860   -1.7156 H   0  0  0  0  0  0  0  0  0  0  0  0
    6.6480   -3.5610   -2.5082 H   0  0  0  0  0  0  0  0  0  0  0  0
    5.0523   -4.3541   -2.2273 H   0  0  0  0  0  0  0  0  0  0  0  0
    5.7196   -3.1691   -1.0332 H   0  0  0  0  0  0  0  0  0  0  0  0
    6.7694   -4.1617    0.9268 H   0  0  0  0  0  0  0  0  0  0  0  0
   10.4323   -5.4636    1.2088 H   0  0  0  0  0  0  0  0  0  0  0  0
    9.8067   -7.7922    0.8867 H   0  0  0  0  0  0  0  0  0  0  0  0
    8.3938   -7.3394   -0.1310 H   0  0  0  0  0  0  0  0  0  0  0  0
    8.4153   -6.9126    1.6325 H   0  0  0  0  0  0  0  0  0  0  0  0
    9.8291   -5.7478   -1.7682 H   0  0  0  0  0  0  0  0  0  0  0  0
   12.2518   -6.5096    0.9771 H   0  0  0  0  0  0  0  0  0  0  0  0
   14.0430   -8.0692    0.5019 H   0  0  0  0  0  0  0  0  0  0  0  0
   12.6070   -8.4620   -0.5066 H   0  0  0  0  0  0  0  0  0  0  0  0
   14.0283   -7.6322   -1.2561 H   0  0  0  0  0  0  0  0  0  0  0  0
   14.8024   -5.6527    0.3711 H   0  0  0  0  0  0  0  0  0  0  0  0
   14.4407   -2.0922    0.8469 H   0  0  0  0  0  0  0  0  0  0  0  0
   16.4580   -2.4409   -0.6067 H   0  0  0  0  0  0  0  0  0  0  0  0
   16.2977   -3.6987    0.6688 H   0  0  0  0  0  0  0  0  0  0  0  0
   15.8572   -4.0660   -1.0585 H   0  0  0  0  0  0  0  0  0  0  0  0
   13.6530   -2.8807   -1.9967 H   0  0  0  0  0  0  0  0  0  0  0  0
   13.4088   -0.1131    0.5755 H   0  0  0  0  0  0  0  0  0  0  0  0
   15.8271    0.7704   -1.1404 H   0  0  0  0  0  0  0  0  0  0  0  0
   15.4965    1.3335    0.5491 H   0  0  0  0  0  0  0  0  0  0  0  0
   15.8618   -0.3877    0.2453 H   0  0  0  0  0  0  0  0  0  0  0  0
   13.2621    1.8149   -1.7467 H   0  0  0  0  0  0  0  0  0  0  0  0
   13.9161    4.2850    0.7211 H   0  0  0  0  0  0  0  0  0  0  0  0
   14.4601    3.8492   -1.6620 H   0  0  0  0  0  0  0  0  0  0  0  0
   13.6833    5.4532   -1.4518 H   0  0  0  0  0  0  0  0  0  0  0  0
   12.7144    4.0930   -2.1115 H   0  0  0  0  0  0  0  0  0  0  0  0
   10.9499    4.3077    0.1447 H   0  0  0  0  0  0  0  0  0  0  0  0
   10.9188    7.9604    1.1874 H   0  0  0  0  0  0  0  0  0  0  0  0
    9.9506    6.2353   -1.1864 H   0  0  0  0  0  0  0  0  0  0  0  0
    9.5442    7.9620   -0.8320 H   0  0  0  0  0  0  0  0  0  0  0  0
   11.2170    7.5197   -1.3159 H   0  0  0  0  0  0  0  0  0  0  0  0
    9.8118    5.6099    2.1727 H   0  0  0  0  0  0  0  0  0  0  0  0
    6.8632    5.7860    0.3133 H   0  0  0  0  0  0  0  0  0  0  0  0
    8.1751    4.0587    1.4473 H   0  0  0  0  0  0  0  0  0  0  0  0
    6.4769    3.9418    1.9950 H   0  0  0  0  0  0  0  0  0  0  0  0
    7.6880    4.7060    3.0731 H   0  0  0  0  0  0  0  0  0  0  0  0
    6.0395    6.7639    3.0883 H   0  0  0  0  0  0  0  0  0  0  0  0
    3.1151    6.7266    0.0781 H   0  0  0  0  0  0  0  0  0  0  0  0
    4.4798    6.9183   -2.0307 H   0  0  0  0  0  0  0  0  0  0  0  0
    5.9000    7.3933   -1.0189 H   0  0  0  0  0  0  0  0  0  0  0  0
    4.4140    8.4002   -1.0110 H   0  0  0  0  0  0  0  0  0  0  0  0
    5.1944    4.8001   -0.7317 H   0  0  0  0  0  0  0  0  0  0  0  0
    2.0157    3.1019    1.3198 H   0  0  0  0  0  0  0  0  0  0  0  0
    1.0522    4.9284    2.6437 H   0  0  0  0  0  0  0  0  0  0  0  0
    2.4495    5.9743    2.2886 H   0  0  0  0  0  0  0  0  0  0  0  0
    2.6782    4.4510    3.2322 H   0  0  0  0  0  0  0  0  0  0  0  0
    1.0967    5.6057    0.1033 H   0  0  0  0  0  0  0  0  0  0  0  0
    0.3792    2.8984   -2.7331 H   0  0  0  0  0  0  0  0  0  0  0  0
   -0.4656    1.1081   -1.4726 H   0  0  0  0  0  0  0  0  0  0  0  0
    1.1981    1.3854   -0.8861 H   0  0  0  0  0  0  0  0  0  0  0  0
    0.1659    0.4722    2.6009 H   0  0  0  0  0  0  0  0  0  0  0  0
    1.5489    0.8479    1.5356 H   0  0  0  0  0  0  0  0  0  0  0  0
   -1.8736    3.4632   -2.1161 H   0  0  0  0  0  0  0  0  0  0  0  0
   -0.7928    7.1969   -1.1318 H   0  0  0  0  0  0  0  0  0  0  0  0
   -1.2347    5.6021   -3.7294 H   0  0  0  0  0  0  0  0  0  0  0  0
   -0.7474    7.3379   -3.5817 H   0  0  0  0  0  0  0  0  0  0  0  0
    0.3571    6.0532   -2.9918 H   0  0  0  0  0  0  0  0  0  0  0  0
   -3.1998    6.9591   -2.7524 H   0  0  0  0  0  0  0  0  0  0  0  0
   -5.5637    7.7405   -0.7487 H   0  0  0  0  0  0  0  0  0  0  0  0
   -6.4405    5.4453   -1.3594 H   0  0  0  0  0  0  0  0  0  0  0  0
   -4.7541    4.8060   -1.3012 H   0  0  0  0  0  0  0  0  0  0  0  0
   -5.2526    6.0354   -2.5383 H   0  0  0  0  0  0  0  0  0  0  0  0
   -4.5077    5.8643    1.3701 H   0  0  0  0  0  0  0  0  0  0  0  0
   -8.4616    6.8415    2.0616 H   0  0  0  0  0  0  0  0  0  0  0  0
   -9.2738    7.8504    0.1050 H   0  0  0  0  0  0  0  0  0  0  0  0
   -7.7039    8.6665    0.3191 H   0  0  0  0  0  0  0  0  0  0  0  0
   -7.8672    7.3413   -0.9024 H   0  0  0  0  0  0  0  0  0  0  0  0
   -7.2064    4.6052    0.7936 H   0  0  0  0  0  0  0  0  0  0  0  0
   -9.9331    5.9111   -0.9348 H   0  0  0  0  0  0  0  0  0  0  0  0
  -11.2758    3.1766   -0.5527 H   0  0  0  0  0  0  0  0  0  0  0  0
  -10.0244    3.6217   -1.7711 H   0  0  0  0  0  0  0  0  0  0  0  0
  -11.6493    4.3850   -1.8479 H   0  0  0  0  0  0  0  0  0  0  0  0
  -11.2253    6.6565    1.0541 H   0  0  0  0  0  0  0  0  0  0  0  0
  -12.2993    3.6157    1.7037 H   0  0  0  0  0  0  0  0  0  0  0  0
  -14.5884    5.4654    2.6161 H   0  0  0  0  0  0  0  0  0  0  0  0
  -14.0015    3.9998    3.4920 H   0  0  0  0  0  0  0  0  0  0  0  0
  -12.9045    5.4170    3.2828 H   0  0  0  0  0  0  0  0  0  0  0  0
  -15.1598    3.8294    0.6646 H   0  0  0  0  0  0  0  0  0  0  0  0
  -13.0707    0.2402    0.3148 H   0  0  0  0  0  0  0  0  0  0  0  0
  -13.2366   -0.0265    2.7703 H   0  0  0  0  0  0  0  0  0  0  0  0
  -12.2366    1.3836    2.2989 H   0  0  0  0  0  0  0  0  0  0  0  0
  -13.9291    1.6235    2.9171 H   0  0  0  0  0  0  0  0  0  0  0  0
  -15.8824    0.7687    1.3855 H   0  0  0  0  0  0  0  0  0  0  0  0
  -15.1194   -2.8797   -0.6654 H   0  0  0  0  0  0  0  0  0  0  0  0
  -13.8983   -1.9767   -2.5351 H   0  0  0  0  0  0  0  0  0  0  0  0
  -15.2463   -0.8449   -2.2298 H   0  0  0  0  0  0  0  0  0  0  0  0
  -13.5681   -0.4247   -1.7135 H   0  0  0  0  0  0  0  0  0  0  0  0
  -13.1790   -1.9137    1.2215 H   0  0  0  0  0  0  0  0  0  0  0  0
  -13.4670   -4.0843   -1.6927 H   0  0  0  0  0  0  0  0  0  0  0  0
  -11.6970   -3.4155   -3.1124 H   0  0  0  0  0  0  0  0  0  0  0  0
  -11.6610   -5.2077   -2.9867 H   0  0  0  0  0  0  0  0  0  0  0  0
  -10.4385   -4.1990   -2.1200 H   0  0  0  0  0  0  0  0  0  0  0  0
  -13.4533   -5.8594   -0.3297 H   0  0  0  0  0  0  0  0  0  0  0  0
   -9.9380   -4.6796   -0.0255 H   0  0  0  0  0  0  0  0  0  0  0  0
   -9.6629   -6.9510    2.0105 H   0  0  0  0  0  0  0  0  0  0  0  0
  -10.2659   -5.2723    2.3055 H   0  0  0  0  0  0  0  0  0  0  0  0
   -8.5545   -5.5312    1.8137 H   0  0  0  0  0  0  0  0  0  0  0  0
   -9.1431   -6.2156   -1.7326 H   0  0  0  0  0  0  0  0  0  0  0  0
   -6.7677   -6.4686    0.4209 H   0  0  0  0  0  0  0  0  0  0  0  0
   -5.7256   -8.2500    1.7955 H   0  0  0  0  0  0  0  0  0  0  0  0
   -6.9036   -9.4581    1.1655 H   0  0  0  0  0  0  0  0  0  0  0  0
   -7.4697   -8.0692    2.1856 H   0  0  0  0  0  0  0  0  0  0  0  0
   -6.1300   -8.9226   -1.2869 H   0  0  0  0  0  0  0  0  0  0  0  0
  1  2  1  0
  2  3  2  0
  2  4  1  0
  4  5  1  0
  5  6  1  0
  6  7  1  0
  7  8  1  0
  8  9  1  0
  9 10  2  0
 10 11  1  0
 11 12  2  0
 12 13  1  0
 13 14  2  0
 13 15  1  0
 15 16  1  0
 16 17  1  0
 17 18  1  0
 18 19  1  0
 19 20  1  0
 19 21  2  0
 18 22  1  0
 22 23  1  0
 23 24  2  0
 23 25  1  0
 25 26  1  0
 25 27  1  0
 27 28  1  0
 28 29  2  0
 28 30  1  0
 30 31  1  0
 30 32  1  0
 32 33  1  0
 33 34  2  0
 33 35  1  0
 35 36  1  0
 35 37  1  0
 37 38  1  0
 38 39  2  0
 38 40  1  0
 40 41  1  0
 40 42  1  0
 42 43  1  0
 43 44  2  0
 43 45  1  0
 45 46  1  0
 45 47  1  0
 47 48  1  0
 48 49  2  0
 48 50  1  0
 50 51  1  0
 50 52  1  0
 52 53  1  0
 53 54  2  0
 53 55  1  0
 55 56  1  0
 55 57  1  0
 57 58  1  0
 58 59  2  0
 58 60  1  0
 60 61  1  0
 60 62  1  0
 62 63  1  0
 63 64  2  0
 63 65  1  0
 65 66  1  0
 65 67  1  0
 67 68  1  0
 68 69  2  0
 68 70  1  0
 70 71  1  0
 70 72  1  0
 72 73  1  0
 73 74  2  0
 73 75  1  0
 75 76  1  0
 76 77  1  0
 77 78  1  0
 75 79  1  0
 79 80  1  0
 80 81  2  0
 80 82  1  0
 82 83  1  0
 82 84  1  0
 84 85  1  0
 85 86  2  0
 85 87  1  0
 87 88  1  0
 87 89  1  0
 89 90  1  0
 90 91  2  0
 90 92  1  0
 92 93  1  0
 92 94  1  0
 94 95  1  0
 95 96  2  0
 95 97  1  0
 97 98  1  0
 97 99  1  0
 99100  1  0
100101  2  0
100102  1  0
102103  1  0
102104  1  0
104105  1  0
105106  2  0
105107  1  0
107108  1  0
107109  1  0
109110  1  0
110111  2  0
110112  1  0
112113  1  0
112114  1  0
114115  1  0
115116  2  0
115117  1  0
117118  1  0
117119  1  0
119120  1  0
120121  2  0
120122  1  0
122123  1  0
122124  1  0
124125  1  0
125126  2  0
125127  1  0
127128  1  0
127129  1  0
129130  1  0
130131  2  0
130  5  1  0
 14  9  1  0
 78 11  1  0
  1132  1  0
  1133  1  0
  1134  1  0
  4135  1  0
  5136  1  1
  6137  1  0
  6138  1  0
  8139  1  0
  8140  1  0
 10141  1  0
 12142  1  0
 14143  1  0
 15144  1  0
 15145  1  0
 17146  1  0
 17147  1  0
 18148  1  6
 20149  1  0
 20150  1  0
 22151  1  0
 25152  1  6
 26153  1  0
 26154  1  0
 26155  1  0
 27156  1  0
 30157  1  1
 31158  1  0
 31159  1  0
 31160  1  0
 32161  1  0
 35162  1  1
 36163  1  0
 36164  1  0
 36165  1  0
 37166  1  0
 40167  1  1
 41168  1  0
 41169  1  0
 41170  1  0
 42171  1  0
 45172  1  1
 46173  1  0
 46174  1  0
 46175  1  0
 47176  1  0
 50177  1  1
 51178  1  0
 51179  1  0
 51180  1  0
 52181  1  0
 55182  1  1
 56183  1  0
 56184  1  0
 56185  1  0
 57186  1  0
 60187  1  6
 61188  1  0
 61189  1  0
 61190  1  0
 62191  1  0
 65192  1  1
 66193  1  0
 66194  1  0
 66195  1  0
 67196  1  0
 70197  1  1
 71198  1  0
 71199  1  0
 71200  1  0
 72201  1  0
 75202  1  6
 76203  1  0
 76204  1  0
 78205  1  0
 78206  1  0
 79207  1  0
 82208  1  1
 83209  1  0
 83210  1  0
 83211  1  0
 84212  1  0
 87213  1  6
 88214  1  0
 88215  1  0
 88216  1  0
 89217  1  0
 92218  1  1
 93219  1  0
 93220  1  0
 93221  1  0
 94222  1  0
 97223  1  6
 98224  1  0
 98225  1  0
 98226  1  0
 99227  1  0
102228  1  1
103229  1  0
103230  1  0
103231  1  0
104232  1  0
107233  1  6
108234  1  0
108235  1  0
108236  1  0
109237  1  0
112238  1  6
113239  1  0
113240  1  0
113241  1  0
114242  1  0
117243  1  6
118244  1  0
118245  1  0
118246  1  0
119247  1  0
122248  1  6
123249  1  0
123250  1  0
123251  1  0
124252  1  0
127253  1  1
128254  1  0
128255  1  0
128256  1  0
129257  1  0
M  END
