
     RDKit          3D

247249  0  0  0  0  0  0  0  0999 V2000
    2.5279   10.7110   -0.4035 C   0  0  0  0  0  0  0  0  0  0  0  0
    2.5577    9.2773   -0.8109 C   0  0  0  0  0  0  0  0  0  0  0  0
    1.8720    8.8947   -1.8016 O   0  0  0  0  0  0  0  0  0  0  0  0
    3.3418    8.3355   -0.0594 N   0  0  0  0  0  0  0  0  0  0  0  0
    3.7133    7.0127   -0.5793 C   0  0  2  0  0  0  0  0  0  0  0  0
    3.2375    5.9030    0.3749 C   0  0  0  0  0  0  0  0  0  0  0  0
    1.4127    5.8431    0.4656 S   0  0  0  0  0  0  0  0  0  0  0  0
    1.1156    5.0664   -1.1685 C   0  0  0  0  0  0  0  0  0  0  0  0
    0.2589    3.8439   -1.0029 C   0  0  0  0  0  0  0  0  0  0  0  0
   -1.0759    3.9751   -0.5999 C   0  0  0  0  0  0  0  0  0  0  0  0
   -1.8818    2.8399   -0.4281 C   0  0  0  0  0  0  0  0  0  0  0  0
   -1.3362    1.5627   -0.6472 C   0  0  0  0  0  0  0  0  0  0  0  0
    0.0011    1.4147   -1.0665 C   0  0  0  0  0  0  0  0  0  0  0  0
    0.7949    2.5668   -1.2233 C   0  0  0  0  0  0  0  0  0  0  0  0
    0.6637    0.0586   -1.1948 C   0  0  0  0  0  0  0  0  0  0  0  0
   -0.4874   -1.3150   -1.6072 S   0  0  0  0  0  0  0  0  0  0  0  0
   -0.5846   -1.9793    0.0985 C   0  0  0  0  0  0  0  0  0  0  0  0
   -1.4752   -3.2363    0.1535 C   0  0  1  0  0  0  0  0  0  0  0  0
   -0.9532   -4.2822   -0.7464 N   0  0  0  0  0  0  0  0  0  0  0  0
    0.4010   -4.7774   -0.7389 C   0  0  0  0  0  0  0  0  0  0  0  0
    1.0053   -4.8812   -1.8411 O   0  0  0  0  0  0  0  0  0  0  0  0
    1.0511   -5.3004    0.5214 C   0  0  1  0  0  0  0  0  0  0  0  0
    0.5635   -6.7220    0.8373 C   0  0  0  0  0  0  0  0  0  0  0  0
    2.5174   -5.2370    0.4625 N   0  0  0  0  0  0  0  0  0  0  0  0
    3.3268   -6.2281   -0.2046 C   0  0  0  0  0  0  0  0  0  0  0  0
    3.0565   -6.5588   -1.3886 O   0  0  0  0  0  0  0  0  0  0  0  0
    4.4712   -6.9298    0.4907 C   0  0  1  0  0  0  0  0  0  0  0  0
    4.6657   -6.5101    1.9526 C   0  0  0  0  0  0  0  0  0  0  0  0
    4.2275   -8.3720    0.4353 N   0  0  0  0  0  0  0  0  0  0  0  0
    5.1284   -9.3020   -0.1850 C   0  0  0  0  0  0  0  0  0  0  0  0
    4.6533  -10.2644   -0.8460 O   0  0  0  0  0  0  0  0  0  0  0  0
    6.6265   -9.1409   -0.0536 C   0  0  1  0  0  0  0  0  0  0  0  0
    7.3300  -10.5026   -0.0429 C   0  0  0  0  0  0  0  0  0  0  0  0
    7.1449   -8.3104   -1.1450 N   0  0  0  0  0  0  0  0  0  0  0  0
    8.2147   -7.3527   -1.0104 C   0  0  0  0  0  0  0  0  0  0  0  0
    8.3675   -6.4997   -1.9245 O   0  0  0  0  0  0  0  0  0  0  0  0
    9.2001   -7.3674    0.1427 C   0  0  1  0  0  0  0  0  0  0  0  0
   10.5745   -7.8453   -0.3240 C   0  0  0  0  0  0  0  0  0  0  0  0
    9.2462   -6.0624    0.8214 N   0  0  0  0  0  0  0  0  0  0  0  0
    9.6141   -4.8190    0.1977 C   0  0  0  0  0  0  0  0  0  0  0  0
    8.7559   -3.8988    0.1233 O   0  0  0  0  0  0  0  0  0  0  0  0
   11.0231   -4.5479   -0.2621 C   0  0  1  0  0  0  0  0  0  0  0  0
   11.0744   -4.2312   -1.7649 C   0  0  0  0  0  0  0  0  0  0  0  0
   11.6341   -3.4988    0.5623 N   0  0  0  0  0  0  0  0  0  0  0  0
   11.7038   -2.1073    0.1963 C   0  0  0  0  0  0  0  0  0  0  0  0
   10.6746   -1.5280   -0.2525 O   0  0  0  0  0  0  0  0  0  0  0  0
   12.9963   -1.3254    0.2968 C   0  0  1  0  0  0  0  0  0  0  0  0
   14.0942   -2.0810    1.0525 C   0  0  0  0  0  0  0  0  0  0  0  0
   13.4629   -1.0159   -1.0588 N   0  0  0  0  0  0  0  0  0  0  0  0
   13.5491    0.2926   -1.6488 C   0  0  0  0  0  0  0  0  0  0  0  0
   13.6076    0.3716   -2.9084 O   0  0  0  0  0  0  0  0  0  0  0  0
   13.6480    1.5623   -0.8161 C   0  0  1  0  0  0  0  0  0  0  0  0
   14.9806    1.5900   -0.0549 C   0  0  0  0  0  0  0  0  0  0  0  0
   13.5578    2.7628   -1.6553 N   0  0  0  0  0  0  0  0  0  0  0  0
   13.0747    4.0489   -1.2172 C   0  0  0  0  0  0  0  0  0  0  0  0
   13.0087    4.9838   -2.0625 O   0  0  0  0  0  0  0  0  0  0  0  0
   12.6897    4.3423    0.2215 C   0  0  1  0  0  0  0  0  0  0  0  0
   13.4539    5.5593    0.7592 C   0  0  0  0  0  0  0  0  0  0  0  0
   11.2448    4.5300    0.3703 N   0  0  0  0  0  0  0  0  0  0  0  0
   10.5447    5.6328   -0.2217 C   0  0  0  0  0  0  0  0  0  0  0  0
   10.4136    5.7031   -1.4745 O   0  0  0  0  0  0  0  0  0  0  0  0
    9.9289    6.6903    0.6585 C   0  0  1  0  0  0  0  0  0  0  0  0
   10.3657    8.0868    0.2080 C   0  0  0  0  0  0  0  0  0  0  0  0
    8.4645    6.5920    0.6435 N   0  0  0  0  0  0  0  0  0  0  0  0
    7.6669    7.3310    1.5874 C   0  0  0  0  0  0  0  0  0  0  0  0
    8.0742    7.4574    2.7765 O   0  0  0  0  0  0  0  0  0  0  0  0
    6.3606    7.9835    1.1871 C   0  0  1  0  0  0  0  0  0  0  0  0
    6.3761    9.4664    1.5703 C   0  0  0  0  0  0  0  0  0  0  0  0
    6.1346    7.8672   -0.2568 N   0  0  0  0  0  0  0  0  0  0  0  0
    5.2061    6.9301   -0.8187 C   0  0  0  0  0  0  0  0  0  0  0  0
    5.6454    6.0421   -1.6017 O   0  0  0  0  0  0  0  0  0  0  0  0
   -1.6498   -3.7578    1.5648 C   0  0  0  0  0  0  0  0  0  0  0  0
   -1.0734   -3.1749    2.5262 O   0  0  0  0  0  0  0  0  0  0  0  0
   -2.4115   -4.9396    1.8341 N   0  0  0  0  0  0  0  0  0  0  0  0
   -3.8475   -5.0290    1.5364 C   0  0  2  0  0  0  0  0  0  0  0  0
   -4.6430   -4.4281    2.7015 C   0  0  0  0  0  0  0  0  0  0  0  0
   -4.2404   -6.4792    1.3409 C   0  0  0  0  0  0  0  0  0  0  0  0
   -3.9189   -7.3043    2.2376 O   0  0  0  0  0  0  0  0  0  0  0  0
   -5.0080   -6.9713    0.2177 N   0  0  0  0  0  0  0  0  0  0  0  0
   -5.5343   -6.2084   -0.9190 C   0  0  2  0  0  0  0  0  0  0  0  0
   -4.4047   -5.7745   -1.8607 C   0  0  0  0  0  0  0  0  0  0  0  0
   -6.4377   -5.0779   -0.4681 C   0  0  0  0  0  0  0  0  0  0  0  0
   -6.1448   -3.8889   -0.7707 O   0  0  0  0  0  0  0  0  0  0  0  0
   -7.5931   -5.3099    0.3595 N   0  0  0  0  0  0  0  0  0  0  0  0
   -8.6815   -6.2579    0.0644 C   0  0  2  0  0  0  0  0  0  0  0  0
   -8.2657   -7.7067    0.3333 C   0  0  0  0  0  0  0  0  0  0  0  0
   -9.2171   -6.0516   -1.3406 C   0  0  0  0  0  0  0  0  0  0  0  0
   -8.4784   -6.3453   -2.3186 O   0  0  0  0  0  0  0  0  0  0  0  0
  -10.5046   -5.4690   -1.6121 N   0  0  0  0  0  0  0  0  0  0  0  0
  -11.6746   -5.5478   -0.7263 C   0  0  2  0  0  0  0  0  0  0  0  0
  -12.0999   -7.0077   -0.5301 C   0  0  0  0  0  0  0  0  0  0  0  0
  -12.8409   -4.7867   -1.3311 C   0  0  0  0  0  0  0  0  0  0  0  0
  -13.2220   -5.1034   -2.4903 O   0  0  0  0  0  0  0  0  0  0  0  0
  -13.5329   -3.7212   -0.6591 N   0  0  0  0  0  0  0  0  0  0  0  0
  -13.2741   -3.2453    0.7069 C   0  0  2  0  0  0  0  0  0  0  0  0
  -13.7993   -4.2602    1.7363 C   0  0  0  0  0  0  0  0  0  0  0  0
  -13.9521   -1.9132    0.9247 C   0  0  0  0  0  0  0  0  0  0  0  0
  -15.2056   -1.8197    0.8186 O   0  0  0  0  0  0  0  0  0  0  0  0
  -13.1923   -0.7619    1.3011 N   0  0  0  0  0  0  0  0  0  0  0  0
  -12.6340    0.1487    0.2838 C   0  0  2  0  0  0  0  0  0  0  0  0
  -11.7932   -0.6222   -0.7386 C   0  0  0  0  0  0  0  0  0  0  0  0
  -11.7942    1.2480    0.9146 C   0  0  0  0  0  0  0  0  0  0  0  0
  -11.7279    1.3645    2.1671 O   0  0  0  0  0  0  0  0  0  0  0  0
  -10.9923    2.1188    0.0992 N   0  0  0  0  0  0  0  0  0  0  0  0
  -11.5098    3.3436   -0.5312 C   0  0  2  0  0  0  0  0  0  0  0  0
  -12.8963    3.1304   -1.1573 C   0  0  0  0  0  0  0  0  0  0  0  0
  -10.5507    3.7868   -1.6229 C   0  0  0  0  0  0  0  0  0  0  0  0
  -10.2207    2.9465   -2.5020 O   0  0  0  0  0  0  0  0  0  0  0  0
   -9.9978    5.1133   -1.7044 N   0  0  0  0  0  0  0  0  0  0  0  0
  -10.2681    6.2211   -0.7743 C   0  0  2  0  0  0  0  0  0  0  0  0
  -11.6762    6.7814   -1.0049 C   0  0  0  0  0  0  0  0  0  0  0  0
   -9.2556    7.3311   -0.9857 C   0  0  0  0  0  0  0  0  0  0  0  0
   -9.1936    7.8755   -2.1196 O   0  0  0  0  0  0  0  0  0  0  0  0
   -8.3828    7.8203    0.0527 N   0  0  0  0  0  0  0  0  0  0  0  0
   -8.3393    7.3315    1.4352 C   0  0  2  0  0  0  0  0  0  0  0  0
   -9.5465    7.8719    2.2184 C   0  0  0  0  0  0  0  0  0  0  0  0
   -7.0302    7.7458    2.0827 C   0  0  0  0  0  0  0  0  0  0  0  0
   -7.0388    8.5463    3.0548 O   0  0  0  0  0  0  0  0  0  0  0  0
   -5.7654    7.2254    1.6435 N   0  0  0  0  0  0  0  0  0  0  0  0
   -5.5428    6.4342    0.4271 C   0  0  1  0  0  0  0  0  0  0  0  0
   -5.0526    7.3364   -0.6827 C   0  0  0  0  0  0  0  0  0  0  0  0
   -3.9063    8.1725   -0.5001 N   0  0  0  0  0  0  0  0  0  0  0  0
   -5.6540    7.3373   -1.7865 O   0  0  0  0  0  0  0  0  0  0  0  0
   -4.5307    5.3154    0.7254 C   0  0  0  0  0  0  0  0  0  0  0  0
   -4.2483    4.2500   -0.7418 S   0  0  0  0  0  0  0  0  0  0  0  0
   -3.2680    2.9767    0.1471 C   0  0  0  0  0  0  0  0  0  0  0  0
    1.8024   11.2808   -1.0248 H   0  0  0  0  0  0  0  0  0  0  0  0
    3.5384   11.1521   -0.5406 H   0  0  0  0  0  0  0  0  0  0  0  0
    2.2366   10.8053    0.6667 H   0  0  0  0  0  0  0  0  0  0  0  0
    3.5914    8.5847    0.9223 H   0  0  0  0  0  0  0  0  0  0  0  0
    3.2414    6.8613   -1.5680 H   0  0  0  0  0  0  0  0  0  0  0  0
    3.6295    4.9117    0.0570 H   0  0  0  0  0  0  0  0  0  0  0  0
    3.6216    6.0980    1.3969 H   0  0  0  0  0  0  0  0  0  0  0  0
    0.5891    5.7959   -1.8212 H   0  0  0  0  0  0  0  0  0  0  0  0
    2.0660    4.8034   -1.6786 H   0  0  0  0  0  0  0  0  0  0  0  0
   -1.4734    4.9620   -0.3957 H   0  0  0  0  0  0  0  0  0  0  0  0
   -1.9558    0.6958   -0.4495 H   0  0  0  0  0  0  0  0  0  0  0  0
    1.8379    2.4568   -1.5032 H   0  0  0  0  0  0  0  0  0  0  0  0
    1.4096    0.0975   -2.0133 H   0  0  0  0  0  0  0  0  0  0  0  0
    1.2310   -0.1530   -0.2629 H   0  0  0  0  0  0  0  0  0  0  0  0
    0.4394   -2.2232    0.4569 H   0  0  0  0  0  0  0  0  0  0  0  0
   -1.0175   -1.2000    0.7564 H   0  0  0  0  0  0  0  0  0  0  0  0
   -2.4824   -2.9378   -0.2141 H   0  0  0  0  0  0  0  0  0  0  0  0
   -1.4885   -4.4463   -1.6246 H   0  0  0  0  0  0  0  0  0  0  0  0
    0.7370   -4.6571    1.3654 H   0  0  0  0  0  0  0  0  0  0  0  0
    0.8383   -7.4236    0.0179 H   0  0  0  0  0  0  0  0  0  0  0  0
    1.0218   -7.0790    1.7855 H   0  0  0  0  0  0  0  0  0  0  0  0
   -0.5396   -6.7441    0.9537 H   0  0  0  0  0  0  0  0  0  0  0  0
    2.9864   -4.5886    1.1307 H   0  0  0  0  0  0  0  0  0  0  0  0
    5.4029   -6.6706   -0.0567 H   0  0  0  0  0  0  0  0  0  0  0  0
    5.4934   -7.0982    2.4021 H   0  0  0  0  0  0  0  0  0  0  0  0
    3.7387   -6.6902    2.5409 H   0  0  0  0  0  0  0  0  0  0  0  0
    4.9482   -5.4375    2.0163 H   0  0  0  0  0  0  0  0  0  0  0  0
    3.2965   -8.7317    0.7462 H   0  0  0  0  0  0  0  0  0  0  0  0
    6.8031   -8.6488    0.9223 H   0  0  0  0  0  0  0  0  0  0  0  0
    7.1279  -11.0548   -0.9848 H   0  0  0  0  0  0  0  0  0  0  0  0
    6.9746  -11.1122    0.8164 H   0  0  0  0  0  0  0  0  0  0  0  0
    8.4299  -10.3739    0.0421 H   0  0  0  0  0  0  0  0  0  0  0  0
    6.6991   -8.4055   -2.0836 H   0  0  0  0  0  0  0  0  0  0  0  0
    8.8884   -8.1125    0.9009 H   0  0  0  0  0  0  0  0  0  0  0  0
   10.5266   -8.9158   -0.6054 H   0  0  0  0  0  0  0  0  0  0  0  0
   10.9179   -7.2820   -1.2156 H   0  0  0  0  0  0  0  0  0  0  0  0
   11.3186   -7.7418    0.4938 H   0  0  0  0  0  0  0  0  0  0  0  0
    8.6746   -5.9826    1.6930 H   0  0  0  0  0  0  0  0  0  0  0  0
   11.6407   -5.4525   -0.1055 H   0  0  0  0  0  0  0  0  0  0  0  0
   10.7764   -5.1241   -2.3480 H   0  0  0  0  0  0  0  0  0  0  0  0
   10.3911   -3.3966   -2.0248 H   0  0  0  0  0  0  0  0  0  0  0  0
   12.1114   -3.9611   -2.0553 H   0  0  0  0  0  0  0  0  0  0  0  0
   12.1026   -3.8030    1.4469 H   0  0  0  0  0  0  0  0  0  0  0  0
   12.7874   -0.3999    0.8678 H   0  0  0  0  0  0  0  0  0  0  0  0
   14.3160   -3.0489    0.5496 H   0  0  0  0  0  0  0  0  0  0  0  0
   15.0313   -1.4901    1.0782 H   0  0  0  0  0  0  0  0  0  0  0  0
   13.7802   -2.2703    2.1005 H   0  0  0  0  0  0  0  0  0  0  0  0
   13.6599   -1.8293   -1.6853 H   0  0  0  0  0  0  0  0  0  0  0  0
   12.8023    1.5571   -0.1049 H   0  0  0  0  0  0  0  0  0  0  0  0
   15.1097    2.5548    0.4828 H   0  0  0  0  0  0  0  0  0  0  0  0
   15.0243    0.7813    0.6993 H   0  0  0  0  0  0  0  0  0  0  0  0
   15.8314    1.4764   -0.7621 H   0  0  0  0  0  0  0  0  0  0  0  0
   14.0063    2.7459   -2.6001 H   0  0  0  0  0  0  0  0  0  0  0  0
   12.9892    3.4977    0.8750 H   0  0  0  0  0  0  0  0  0  0  0  0
   13.1571    5.7518    1.8118 H   0  0  0  0  0  0  0  0  0  0  0  0
   14.5465    5.3637    0.7341 H   0  0  0  0  0  0  0  0  0  0  0  0
   13.2386    6.4674    0.1578 H   0  0  0  0  0  0  0  0  0  0  0  0
   10.7985    4.0891    1.2082 H   0  0  0  0  0  0  0  0  0  0  0  0
   10.2965    6.5307    1.6965 H   0  0  0  0  0  0  0  0  0  0  0  0
   10.0009    8.8521    0.9238 H   0  0  0  0  0  0  0  0  0  0  0  0
   11.4741    8.1511    0.1700 H   0  0  0  0  0  0  0  0  0  0  0  0
    9.9509    8.3183   -0.7972 H   0  0  0  0  0  0  0  0  0  0  0  0
    8.0038    6.1821   -0.2014 H   0  0  0  0  0  0  0  0  0  0  0  0
    5.5457    7.4769    1.7417 H   0  0  0  0  0  0  0  0  0  0  0  0
    5.4510    9.9669    1.2188 H   0  0  0  0  0  0  0  0  0  0  0  0
    6.4387    9.5817    2.6727 H   0  0  0  0  0  0  0  0  0  0  0  0
    7.2473    9.9793    1.1002 H   0  0  0  0  0  0  0  0  0  0  0  0
    6.8687    8.2610   -0.8919 H   0  0  0  0  0  0  0  0  0  0  0  0
   -2.0520   -5.5385    2.6080 H   0  0  0  0  0  0  0  0  0  0  0  0
   -4.0786   -4.4268    0.6458 H   0  0  0  0  0  0  0  0  0  0  0  0
   -4.3968   -3.3485    2.8077 H   0  0  0  0  0  0  0  0  0  0  0  0
   -5.7336   -4.5132    2.5190 H   0  0  0  0  0  0  0  0  0  0  0  0
   -4.3924   -4.9407    3.6531 H   0  0  0  0  0  0  0  0  0  0  0  0
   -5.1974   -8.0001    0.2101 H   0  0  0  0  0  0  0  0  0  0  0  0
   -6.1521   -6.8935   -1.5300 H   0  0  0  0  0  0  0  0  0  0  0  0
   -3.8007   -6.6603   -2.1543 H   0  0  0  0  0  0  0  0  0  0  0  0
   -3.7318   -5.0363   -1.3899 H   0  0  0  0  0  0  0  0  0  0  0  0
   -4.8328   -5.3237   -2.7813 H   0  0  0  0  0  0  0  0  0  0  0  0
   -7.8066   -4.5740    1.0679 H   0  0  0  0  0  0  0  0  0  0  0  0
   -9.4908   -6.0478    0.7908 H   0  0  0  0  0  0  0  0  0  0  0  0
   -9.1632   -8.3518    0.4207 H   0  0  0  0  0  0  0  0  0  0  0  0
   -7.6408   -8.1318   -0.4775 H   0  0  0  0  0  0  0  0  0  0  0  0
   -7.7069   -7.7723    1.2939 H   0  0  0  0  0  0  0  0  0  0  0  0
  -10.6214   -5.0373   -2.5595 H   0  0  0  0  0  0  0  0  0  0  0  0
  -11.4119   -5.1127    0.2554 H   0  0  0  0  0  0  0  0  0  0  0  0
  -13.0038   -7.0675    0.1101 H   0  0  0  0  0  0  0  0  0  0  0  0
  -12.3261   -7.4806   -1.5067 H   0  0  0  0  0  0  0  0  0  0  0  0
  -11.2966   -7.5846   -0.0437 H   0  0  0  0  0  0  0  0  0  0  0  0
  -14.2854   -3.2431   -1.2102 H   0  0  0  0  0  0  0  0  0  0  0  0
  -12.1822   -3.1052    0.8595 H   0  0  0  0  0  0  0  0  0  0  0  0
  -13.6992   -3.8507    2.7659 H   0  0  0  0  0  0  0  0  0  0  0  0
  -13.2263   -5.2041    1.6902 H   0  0  0  0  0  0  0  0  0  0  0  0
  -14.8687   -4.4906    1.5416 H   0  0  0  0  0  0  0  0  0  0  0  0
  -13.4635   -0.3470    2.2206 H   0  0  0  0  0  0  0  0  0  0  0  0
  -13.4829    0.6204   -0.2561 H   0  0  0  0  0  0  0  0  0  0  0  0
  -12.4280   -1.3323   -1.3105 H   0  0  0  0  0  0  0  0  0  0  0  0
  -10.9827   -1.1852   -0.2263 H   0  0  0  0  0  0  0  0  0  0  0  0
  -11.3420    0.0712   -1.4840 H   0  0  0  0  0  0  0  0  0  0  0  0
   -9.9758    2.1293    0.3391 H   0  0  0  0  0  0  0  0  0  0  0  0
  -11.6039    4.1141    0.2582 H   0  0  0  0  0  0  0  0  0  0  0  0
  -12.8839    2.2668   -1.8494 H   0  0  0  0  0  0  0  0  0  0  0  0
  -13.6545    2.9613   -0.3643 H   0  0  0  0  0  0  0  0  0  0  0  0
  -13.2084    4.0262   -1.7311 H   0  0  0  0  0  0  0  0  0  0  0  0
   -9.3455    5.2895   -2.5021 H   0  0  0  0  0  0  0  0  0  0  0  0
  -10.1967    5.8401    0.2594 H   0  0  0  0  0  0  0  0  0  0  0  0
  -11.8015    7.0787   -2.0675 H   0  0  0  0  0  0  0  0  0  0  0  0
  -12.4486    6.0359   -0.7502 H   0  0  0  0  0  0  0  0  0  0  0  0
  -11.8410    7.6776   -0.3680 H   0  0  0  0  0  0  0  0  0  0  0  0
   -7.7241    8.5864   -0.2225 H   0  0  0  0  0  0  0  0  0  0  0  0
   -8.3740    6.2229    1.4526 H   0  0  0  0  0  0  0  0  0  0  0  0
   -9.5021    7.5205    3.2729 H   0  0  0  0  0  0  0  0  0  0  0  0
  -10.5026    7.5162    1.7886 H   0  0  0  0  0  0  0  0  0  0  0  0
   -9.5538    8.9837    2.2080 H   0  0  0  0  0  0  0  0  0  0  0  0
   -4.9213    7.5401    2.1728 H   0  0  0  0  0  0  0  0  0  0  0  0
   -6.4825    5.9422    0.1076 H   0  0  0  0  0  0  0  0  0  0  0  0
   -3.3755    8.1718    0.3968 H   0  0  0  0  0  0  0  0  0  0  0  0
   -3.6237    8.8389   -1.2535 H   0  0  0  0  0  0  0  0  0  0  0  0
   -4.9411    4.6872    1.5466 H   0  0  0  0  0  0  0  0  0  0  0  0
   -3.5637    5.7508    1.0566 H   0  0  0  0  0  0  0  0  0  0  0  0
   -3.8263    2.0230    0.0596 H   0  0  0  0  0  0  0  0  0  0  0  0
   -3.1722    3.1915    1.2319 H   0  0  0  0  0  0  0  0  0  0  0  0
  1  2  1  0
  2  3  2  0
  2  4  1  0
  4  5  1  0
  5  6  1  0
  6  7  1  0
  7  8  1  0
  8  9  1  0
  9 10  2  0
 10 11  1  0
 11 12  2  0
 12 13  1  0
 13 14  2  0
 13 15  1  0
 15 16  1  0
 16 17  1  0
 17 18  1  0
 18 19  1  0
 19 20  1  0
 20 21  2  0
 20 22  1  0
 22 23  1  0
 22 24  1  0
 24 25  1  0
 25 26  2  0
 25 27  1  0
 27 28  1  0
 27 29  1  0
 29 30  1  0
 30 31  2  0
 30 32  1  0
 32 33  1  0
 32 34  1  0
 34 35  1  0
 35 36  2  0
 35 37  1  0
 37 38  1  0
 37 39  1  0
 39 40  1  0
 40 41  2  0
 40 42  1  0
 42 43  1  0
 42 44  1  0
 44 45  1  0
 45 46  2  0
 45 47  1  0
 47 48  1  0
 47 49  1  0
 49 50  1  0
 50 51  2  0
 50 52  1  0
 52 53  1  0
 52 54  1  0
 54 55  1  0
 55 56  2  0
 55 57  1  0
 57 58  1  0
 57 59  1  0
 59 60  1  0
 60 61  2  0
 60 62  1  0
 62 63  1  0
 62 64  1  0
 64 65  1  0
 65 66  2  0
 65 67  1  0
 67 68  1  0
 67 69  1  0
 69 70  1  0
 70 71  2  0
 18 72  1  0
 72 73  2  0
 72 74  1  0
 74 75  1  0
 75 76  1  0
 75 77  1  0
 77 78  2  0
 77 79  1  0
 79 80  1  0
 80 81  1  0
 80 82  1  0
 82 83  2  0
 82 84  1  0
 84 85  1  0
 85 86  1  0
 85 87  1  0
 87 88  2  0
 87 89  1  0
 89 90  1  0
 90 91  1  0
 90 92  1  0
 92 93  2  0
 92 94  1  0
 94 95  1  0
 95 96  1  0
 95 97  1  0
 97 98  2  0
 97 99  1  0
 99100  1  0
100101  1  0
100102  1  0
102103  2  0
102104  1  0
104105  1  0
105106  1  0
105107  1  0
107108  2  0
107109  1  0
109110  1  0
110111  1  0
110112  1  0
112113  2  0
112114  1  0
114115  1  0
115116  1  0
115117  1  0
117118  2  0
117119  1  0
119120  1  0
120121  1  0
121122  1  0
121123  2  0
120124  1  0
124125  1  0
125126  1  0
 70  5  1  0
 14  9  1  0
126 11  1  0
  1127  1  0
  1128  1  0
  1129  1  0
  4130  1  0
  5131  1  6
  6132  1  0
  6133  1  0
  8134  1  0
  8135  1  0
 10136  1  0
 12137  1  0
 14138  1  0
 15139  1  0
 15140  1  0
 17141  1  0
 17142  1  0
 18143  1  6
 19144  1  0
 22145  1  1
 23146  1  0
 23147  1  0
 23148  1  0
 24149  1  0
 27150  1  6
 28151  1  0
 28152  1  0
 28153  1  0
 29154  1  0
 32155  1  1
 33156  1  0
 33157  1  0
 33158  1  0
 34159  1  0
 37160  1  1
 38161  1  0
 38162  1  0
 38163  1  0
 39164  1  0
 42165  1  6
 43166  1  0
 43167  1  0
 43168  1  0
 44169  1  0
 47170  1  1
 48171  1  0
 48172  1  0
 48173  1  0
 49174  1  0
 52175  1  1
 53176  1  0
 53177  1  0
 53178  1  0
 54179  1  0
 57180  1  1
 58181  1  0
 58182  1  0
 58183  1  0
 59184  1  0
 62185  1  1
 63186  1  0
 63187  1  0
 63188  1  0
 64189  1  0
 67190  1  1
 68191  1  0
 68192  1  0
 68193  1  0
 69194  1  0
 74195  1  0
 75196  1  6
 76197  1  0
 76198  1  0
 76199  1  0
 79200  1  0
 80201  1  6
 81202  1  0
 81203  1  0
 81204  1  0
 84205  1  0
 85206  1  1
 86207  1  0
 86208  1  0
 86209  1  0
 89210  1  0
 90211  1  1
 91212  1  0
 91213  1  0
 91214  1  0
 94215  1  0
 95216  1  6
 96217  1  0
 96218  1  0
 96219  1  0
 99220  1  0
100221  1  6
101222  1  0
101223  1  0
101224  1  0
104225  1  0
105226  1  1
106227  1  0
106228  1  0
106229  1  0
109230  1  0
110231  1  1
111232  1  0
111233  1  0
111234  1  0
114235  1  0
115236  1  6
116237  1  0
116238  1  0
116239  1  0
119240  1  0
120241  1  6
122242  1  0
122243  1  0
124244  1  0
124245  1  0
126246  1  0
126247  1  0
M  END
