
     RDKit          3D

257259  0  0  0  0  0  0  0  0999 V2000
    2.0785    8.5494   -3.0310 C   0  0  0  0  0  0  0  0  0  0  0  0
    3.4244    8.0586   -3.4707 C   0  0  0  0  0  0  0  0  0  0  0  0
    3.9599    8.5861   -4.4855 O   0  0  0  0  0  0  0  0  0  0  0  0
    4.1263    7.0133   -2.7786 N   0  0  0  0  0  0  0  0  0  0  0  0
    3.5549    6.2247   -1.6743 C   0  0  1  0  0  0  0  0  0  0  0  0
    3.6049    4.7277   -2.0146 C   0  0  0  0  0  0  0  0  0  0  0  0
    2.5758    4.3881   -3.4818 S   0  0  0  0  0  0  0  0  0  0  0  0
    2.3796    2.5931   -3.1861 C   0  0  0  0  0  0  0  0  0  0  0  0
    1.3317    2.3234   -2.1375 C   0  0  0  0  0  0  0  0  0  0  0  0
    0.0454    2.8729   -2.2688 C   0  0  0  0  0  0  0  0  0  0  0  0
   -0.9414    2.6129   -1.3046 C   0  0  0  0  0  0  0  0  0  0  0  0
   -0.6671    1.7143   -0.2632 C   0  0  0  0  0  0  0  0  0  0  0  0
    0.6052    1.1186   -0.1561 C   0  0  0  0  0  0  0  0  0  0  0  0
    1.6089    1.4613   -1.0671 C   0  0  0  0  0  0  0  0  0  0  0  0
    0.8585    0.0916    0.9254 C   0  0  0  0  0  0  0  0  0  0  0  0
   -0.2026   -1.3895    0.6536 S   0  0  0  0  0  0  0  0  0  0  0  0
    1.0505   -2.4954   -0.1191 C   0  0  0  0  0  0  0  0  0  0  0  0
    1.1585   -2.2472   -1.6369 C   0  0  1  0  0  0  0  0  0  0  0  0
    2.4572   -2.7291   -2.1405 N   0  0  0  0  0  0  0  0  0  0  0  0
    2.7668   -4.0171   -2.6997 C   0  0  0  0  0  0  0  0  0  0  0  0
    3.7812   -4.1115   -3.4495 O   0  0  0  0  0  0  0  0  0  0  0  0
    2.0131   -5.2834   -2.3426 C   0  0  1  0  0  0  0  0  0  0  0  0
    1.7891   -6.1584   -3.5861 C   0  0  0  0  0  0  0  0  0  0  0  0
    2.7168   -6.0558   -1.3089 N   0  0  0  0  0  0  0  0  0  0  0  0
    4.1212   -6.3152   -1.3528 C   0  0  0  0  0  0  0  0  0  0  0  0
    4.5511   -7.2555   -2.0705 O   0  0  0  0  0  0  0  0  0  0  0  0
    5.0706   -5.4313   -0.5847 C   0  0  1  0  0  0  0  0  0  0  0  0
    4.4855   -5.0397    0.7846 C   0  0  0  0  0  0  0  0  0  0  0  0
    6.4084   -6.0209   -0.4593 N   0  0  0  0  0  0  0  0  0  0  0  0
    6.6794   -7.3369    0.0340 C   0  0  0  0  0  0  0  0  0  0  0  0
    7.2226   -8.1725   -0.7388 O   0  0  0  0  0  0  0  0  0  0  0  0
    6.5644   -7.6649    1.5026 C   0  0  1  0  0  0  0  0  0  0  0  0
    6.0796   -9.1035    1.7112 C   0  0  0  0  0  0  0  0  0  0  0  0
    7.8718   -7.4602    2.1421 N   0  0  0  0  0  0  0  0  0  0  0  0
    8.4607   -6.1527    2.2518 C   0  0  0  0  0  0  0  0  0  0  0  0
    7.7153   -5.1321    2.3312 O   0  0  0  0  0  0  0  0  0  0  0  0
    9.9506   -5.9569    2.1582 C   0  0  1  0  0  0  0  0  0  0  0  0
   10.7238   -7.0111    2.9610 C   0  0  0  0  0  0  0  0  0  0  0  0
   10.3516   -6.0144    0.7522 N   0  0  0  0  0  0  0  0  0  0  0  0
   11.4358   -5.2623    0.1720 C   0  0  0  0  0  0  0  0  0  0  0  0
   12.0064   -5.7399   -0.8448 O   0  0  0  0  0  0  0  0  0  0  0  0
   11.9160   -3.9420    0.7442 C   0  0  1  0  0  0  0  0  0  0  0  0
   12.9791   -4.1671    1.8245 C   0  0  0  0  0  0  0  0  0  0  0  0
   12.4895   -3.0997   -0.3102 N   0  0  0  0  0  0  0  0  0  0  0  0
   12.6362   -1.6846   -0.1166 C   0  0  0  0  0  0  0  0  0  0  0  0
   11.6686   -1.0265    0.3504 O   0  0  0  0  0  0  0  0  0  0  0  0
   13.9553   -0.9716   -0.3413 C   0  0  1  0  0  0  0  0  0  0  0  0
   14.9901   -1.8037   -1.1123 C   0  0  0  0  0  0  0  0  0  0  0  0
   13.7194    0.2818   -1.0755 N   0  0  0  0  0  0  0  0  0  0  0  0
   13.8560    1.5893   -0.4919 C   0  0  0  0  0  0  0  0  0  0  0  0
   14.1776    2.5530   -1.2380 O   0  0  0  0  0  0  0  0  0  0  0  0
   13.5720    1.8527    0.9736 C   0  0  1  0  0  0  0  0  0  0  0  0
   14.8866    2.1907    1.6993 C   0  0  0  0  0  0  0  0  0  0  0  0
   12.5623    2.9194    1.0808 N   0  0  0  0  0  0  0  0  0  0  0  0
   12.4776    3.8880    2.1378 C   0  0  0  0  0  0  0  0  0  0  0  0
   12.7528    3.5520    3.3179 O   0  0  0  0  0  0  0  0  0  0  0  0
   11.9983    5.2905    1.8523 C   0  0  1  0  0  0  0  0  0  0  0  0
   12.8822    6.3200    2.5672 C   0  0  0  0  0  0  0  0  0  0  0  0
   12.0379    5.5718    0.4054 N   0  0  0  0  0  0  0  0  0  0  0  0
   10.9881    6.2377   -0.3187 C   0  0  0  0  0  0  0  0  0  0  0  0
   10.9310    6.0760   -1.5624 O   0  0  0  0  0  0  0  0  0  0  0  0
   10.0071    7.1793    0.3624 C   0  0  1  0  0  0  0  0  0  0  0  0
    9.8346    8.4712   -0.4486 C   0  0  0  0  0  0  0  0  0  0  0  0
    8.6888    6.5785    0.6394 N   0  0  0  0  0  0  0  0  0  0  0  0
    7.9864    5.5916   -0.1496 C   0  0  0  0  0  0  0  0  0  0  0  0
    8.5373    5.0353   -1.1421 O   0  0  0  0  0  0  0  0  0  0  0  0
    6.5070    5.3432    0.0836 C   0  0  1  0  0  0  0  0  0  0  0  0
    6.2146    5.0225    1.5550 C   0  0  0  0  0  0  0  0  0  0  0  0
    5.7369    6.5020   -0.3667 N   0  0  0  0  0  0  0  0  0  0  0  0
    4.3057    6.4951   -0.3902 C   0  0  0  0  0  0  0  0  0  0  0  0
    3.6613    6.7457    0.6679 O   0  0  0  0  0  0  0  0  0  0  0  0
   -0.0129   -2.7266   -2.4655 C   0  0  0  0  0  0  0  0  0  0  0  0
    0.1024   -2.7510   -3.7223 O   0  0  0  0  0  0  0  0  0  0  0  0
   -1.2983   -2.9796   -1.8780 N   0  0  0  0  0  0  0  0  0  0  0  0
   -1.7219   -4.3196   -1.4668 C   0  0  2  0  0  0  0  0  0  0  0  0
   -2.0107   -5.1827   -2.7073 C   0  0  0  0  0  0  0  0  0  0  0  0
   -2.9096   -4.2012   -0.5332 C   0  0  0  0  0  0  0  0  0  0  0  0
   -2.7747   -3.5889    0.5619 O   0  0  0  0  0  0  0  0  0  0  0  0
   -4.2078   -4.6893   -0.8956 N   0  0  0  0  0  0  0  0  0  0  0  0
   -4.5514   -6.1145   -0.8327 C   0  0  2  0  0  0  0  0  0  0  0  0
   -5.4220   -6.4954   -2.0383 C   0  0  0  0  0  0  0  0  0  0  0  0
   -5.2321   -6.4180    0.4696 C   0  0  0  0  0  0  0  0  0  0  0  0
   -4.5321   -6.7440    1.4687 O   0  0  0  0  0  0  0  0  0  0  0  0
   -6.6540   -6.3899    0.5990 N   0  0  0  0  0  0  0  0  0  0  0  0
   -7.4052   -5.1512    0.8136 C   0  0  2  0  0  0  0  0  0  0  0  0
   -6.8235   -4.3736    2.0018 C   0  0  0  0  0  0  0  0  0  0  0  0
   -8.8742   -5.4695    1.0278 C   0  0  0  0  0  0  0  0  0  0  0  0
   -9.3733   -5.4031    2.1836 O   0  0  0  0  0  0  0  0  0  0  0  0
   -9.6759   -5.9846   -0.0375 N   0  0  0  0  0  0  0  0  0  0  0  0
  -10.2384   -5.1578   -1.1140 C   0  0  2  0  0  0  0  0  0  0  0  0
   -9.2290   -4.9419   -2.2454 C   0  0  0  0  0  0  0  0  0  0  0  0
  -10.7865   -3.8481   -0.5936 C   0  0  0  0  0  0  0  0  0  0  0  0
   -9.9930   -2.9612   -0.1840 O   0  0  0  0  0  0  0  0  0  0  0  0
  -12.1930   -3.6176   -0.4958 N   0  0  0  0  0  0  0  0  0  0  0  0
  -13.0952   -4.5286    0.2300 C   0  0  2  0  0  0  0  0  0  0  0  0
  -13.9668   -5.3090   -0.7615 C   0  0  0  0  0  0  0  0  0  0  0  0
  -13.9801   -3.7694    1.2016 C   0  0  0  0  0  0  0  0  0  0  0  0
  -14.8443   -4.4074    1.8620 O   0  0  0  0  0  0  0  0  0  0  0  0
  -13.9028   -2.3484    1.3656 N   0  0  0  0  0  0  0  0  0  0  0  0
  -12.7004   -1.6943    1.8942 C   0  0  2  0  0  0  0  0  0  0  0  0
  -12.8465   -1.3935    3.3890 C   0  0  0  0  0  0  0  0  0  0  0  0
  -12.3206   -0.4681    1.0803 C   0  0  0  0  0  0  0  0  0  0  0  0
  -11.1017   -0.3315    0.7830 O   0  0  0  0  0  0  0  0  0  0  0  0
  -13.2500    0.5142    0.5898 N   0  0  0  0  0  0  0  0  0  0  0  0
  -14.5279    0.9026    1.2054 C   0  0  2  0  0  0  0  0  0  0  0  0
  -15.6536    0.7389    0.1820 C   0  0  0  0  0  0  0  0  0  0  0  0
  -14.5035    2.3335    1.6922 C   0  0  0  0  0  0  0  0  0  0  0  0
  -15.4290    2.7406    2.4428 O   0  0  0  0  0  0  0  0  0  0  0  0
  -13.5056    3.2645    1.2568 N   0  0  0  0  0  0  0  0  0  0  0  0
  -12.1393    3.2422    1.7861 C   0  0  2  0  0  0  0  0  0  0  0  0
  -12.0129    4.2346    2.9448 C   0  0  0  0  0  0  0  0  0  0  0  0
  -11.1604    3.5875    0.7003 C   0  0  0  0  0  0  0  0  0  0  0  0
  -10.3101    2.7282    0.3212 O   0  0  0  0  0  0  0  0  0  0  0  0
  -11.2114    4.8603    0.0530 N   0  0  0  0  0  0  0  0  0  0  0  0
  -10.1690    5.8693    0.2677 C   0  0  2  0  0  0  0  0  0  0  0  0
  -10.6313    7.2288   -0.2616 C   0  0  0  0  0  0  0  0  0  0  0  0
   -8.9038    5.4369   -0.4322 C   0  0  0  0  0  0  0  0  0  0  0  0
   -8.9515    5.2098   -1.6717 O   0  0  0  0  0  0  0  0  0  0  0  0
   -7.6607    5.2187    0.2525 N   0  0  0  0  0  0  0  0  0  0  0  0
   -7.2964    5.7494    1.5735 C   0  0  2  0  0  0  0  0  0  0  0  0
   -7.3942    7.2836    1.6192 C   0  0  0  0  0  0  0  0  0  0  0  0
   -5.8984    5.3189    1.9609 C   0  0  0  0  0  0  0  0  0  0  0  0
   -5.7480    4.5303    2.9294 O   0  0  0  0  0  0  0  0  0  0  0  0
   -4.7327    5.8884    1.3406 N   0  0  0  0  0  0  0  0  0  0  0  0
   -4.3441    5.5732   -0.0412 C   0  0  1  0  0  0  0  0  0  0  0  0
   -4.9457    6.5803   -0.9914 C   0  0  0  0  0  0  0  0  0  0  0  0
   -4.7203    7.9815   -0.8158 N   0  0  0  0  0  0  0  0  0  0  0  0
   -5.6608    6.1878   -1.9487 O   0  0  0  0  0  0  0  0  0  0  0  0
   -2.8076    5.5524   -0.1842 C   0  0  0  0  0  0  0  0  0  0  0  0
   -2.3079    4.9639   -1.8457 S   0  0  0  0  0  0  0  0  0  0  0  0
   -2.3396    3.1646   -1.4897 C   0  0  0  0  0  0  0  0  0  0  0  0
    2.1309    8.8903   -1.9732 H   0  0  0  0  0  0  0  0  0  0  0  0
    1.7493    9.4028   -3.6552 H   0  0  0  0  0  0  0  0  0  0  0  0
    1.3298    7.7329   -3.1280 H   0  0  0  0  0  0  0  0  0  0  0  0
    5.0974    6.7809   -3.0976 H   0  0  0  0  0  0  0  0  0  0  0  0
    2.4918    6.4764   -1.5075 H   0  0  0  0  0  0  0  0  0  0  0  0
    3.2394    4.1463   -1.1428 H   0  0  0  0  0  0  0  0  0  0  0  0
    4.6456    4.4136   -2.2424 H   0  0  0  0  0  0  0  0  0  0  0  0
    3.3593    2.1385   -2.9134 H   0  0  0  0  0  0  0  0  0  0  0  0
    2.0583    2.1242   -4.1336 H   0  0  0  0  0  0  0  0  0  0  0  0
   -0.1861    3.4880   -3.1343 H   0  0  0  0  0  0  0  0  0  0  0  0
   -1.4510    1.4519    0.4403 H   0  0  0  0  0  0  0  0  0  0  0  0
    2.5877    1.0100   -0.9821 H   0  0  0  0  0  0  0  0  0  0  0  0
    1.9348   -0.1881    0.9708 H   0  0  0  0  0  0  0  0  0  0  0  0
    0.5877    0.5361    1.9080 H   0  0  0  0  0  0  0  0  0  0  0  0
    2.0361   -2.3456    0.3676 H   0  0  0  0  0  0  0  0  0  0  0  0
    0.7633   -3.5514    0.0670 H   0  0  0  0  0  0  0  0  0  0  0  0
    1.1679   -1.1425   -1.7770 H   0  0  0  0  0  0  0  0  0  0  0  0
    3.2511   -2.0470   -2.0995 H   0  0  0  0  0  0  0  0  0  0  0  0
    1.0184   -5.0422   -1.9499 H   0  0  0  0  0  0  0  0  0  0  0  0
    1.2445   -7.0844   -3.3062 H   0  0  0  0  0  0  0  0  0  0  0  0
    1.1854   -5.5886   -4.3324 H   0  0  0  0  0  0  0  0  0  0  0  0
    2.7484   -6.4509   -4.0509 H   0  0  0  0  0  0  0  0  0  0  0  0
    2.1648   -6.4873   -0.5383 H   0  0  0  0  0  0  0  0  0  0  0  0
    5.1696   -4.4790   -1.1606 H   0  0  0  0  0  0  0  0  0  0  0  0
    3.6557   -4.3068    0.6384 H   0  0  0  0  0  0  0  0  0  0  0  0
    4.0505   -5.9162    1.3073 H   0  0  0  0  0  0  0  0  0  0  0  0
    5.2580   -4.5615    1.4189 H   0  0  0  0  0  0  0  0  0  0  0  0
    7.1608   -5.5840   -1.0463 H   0  0  0  0  0  0  0  0  0  0  0  0
    5.8218   -7.0067    1.9967 H   0  0  0  0  0  0  0  0  0  0  0  0
    6.8214   -9.8364    1.3125 H   0  0  0  0  0  0  0  0  0  0  0  0
    5.1119   -9.2565    1.1970 H   0  0  0  0  0  0  0  0  0  0  0  0
    5.9398   -9.3117    2.7983 H   0  0  0  0  0  0  0  0  0  0  0  0
    8.3945   -8.2986    2.4986 H   0  0  0  0  0  0  0  0  0  0  0  0
   10.1805   -4.9603    2.5982 H   0  0  0  0  0  0  0  0  0  0  0  0
   11.7980   -6.7473    3.0261 H   0  0  0  0  0  0  0  0  0  0  0  0
   10.6646   -8.0112    2.4752 H   0  0  0  0  0  0  0  0  0  0  0  0
   10.3146   -7.0846    3.9949 H   0  0  0  0  0  0  0  0  0  0  0  0
    9.9904   -6.8173    0.1915 H   0  0  0  0  0  0  0  0  0  0  0  0
   11.0506   -3.4053    1.2049 H   0  0  0  0  0  0  0  0  0  0  0  0
   12.5403   -4.6221    2.7333 H   0  0  0  0  0  0  0  0  0  0  0  0
   13.4331   -3.1983    2.1306 H   0  0  0  0  0  0  0  0  0  0  0  0
   13.7944   -4.8201    1.4415 H   0  0  0  0  0  0  0  0  0  0  0  0
   13.0908   -3.5573   -1.0302 H   0  0  0  0  0  0  0  0  0  0  0  0
   14.4044   -0.7622    0.6555 H   0  0  0  0  0  0  0  0  0  0  0  0
   15.9282   -1.2149   -1.2320 H   0  0  0  0  0  0  0  0  0  0  0  0
   14.6169   -2.0803   -2.1209 H   0  0  0  0  0  0  0  0  0  0  0  0
   15.2474   -2.7275   -0.5472 H   0  0  0  0  0  0  0  0  0  0  0  0
   13.5739    0.2345   -2.1049 H   0  0  0  0  0  0  0  0  0  0  0  0
   13.1478    0.9428    1.4562 H   0  0  0  0  0  0  0  0  0  0  0  0
   15.2383    3.2068    1.4064 H   0  0  0  0  0  0  0  0  0  0  0  0
   14.7537    2.1579    2.7964 H   0  0  0  0  0  0  0  0  0  0  0  0
   15.6845    1.4538    1.4417 H   0  0  0  0  0  0  0  0  0  0  0  0
   11.8654    2.9991    0.3029 H   0  0  0  0  0  0  0  0  0  0  0  0
   10.9640    5.3755    2.2396 H   0  0  0  0  0  0  0  0  0  0  0  0
   13.9523    6.1878    2.2833 H   0  0  0  0  0  0  0  0  0  0  0  0
   12.7807    6.2128    3.6727 H   0  0  0  0  0  0  0  0  0  0  0  0
   12.5850    7.3551    2.2911 H   0  0  0  0  0  0  0  0  0  0  0  0
   12.8757    5.2586   -0.1292 H   0  0  0  0  0  0  0  0  0  0  0  0
   10.4478    7.4850    1.3338 H   0  0  0  0  0  0  0  0  0  0  0  0
   10.8235    8.8722   -0.7462 H   0  0  0  0  0  0  0  0  0  0  0  0
    9.3145    9.2309    0.1709 H   0  0  0  0  0  0  0  0  0  0  0  0
    9.2326    8.2763   -1.3568 H   0  0  0  0  0  0  0  0  0  0  0  0
    8.1178    7.1302    1.3251 H   0  0  0  0  0  0  0  0  0  0  0  0
    6.2095    4.4654   -0.5174 H   0  0  0  0  0  0  0  0  0  0  0  0
    6.8816    4.2097    1.9145 H   0  0  0  0  0  0  0  0  0  0  0  0
    6.3616    5.9209    2.1954 H   0  0  0  0  0  0  0  0  0  0  0  0
    5.1633    4.6820    1.6608 H   0  0  0  0  0  0  0  0  0  0  0  0
    6.2149    7.2411   -0.9299 H   0  0  0  0  0  0  0  0  0  0  0  0
   -2.0528   -2.3068   -2.1574 H   0  0  0  0  0  0  0  0  0  0  0  0
   -0.9125   -4.8030   -0.8778 H   0  0  0  0  0  0  0  0  0  0  0  0
   -2.9662   -4.8735   -3.1952 H   0  0  0  0  0  0  0  0  0  0  0  0
   -2.0557   -6.2618   -2.4294 H   0  0  0  0  0  0  0  0  0  0  0  0
   -1.2085   -5.0685   -3.4646 H   0  0  0  0  0  0  0  0  0  0  0  0
   -4.9971   -4.0057   -0.8652 H   0  0  0  0  0  0  0  0  0  0  0  0
   -3.6272   -6.7230   -0.8750 H   0  0  0  0  0  0  0  0  0  0  0  0
   -4.8272   -6.4459   -2.9771 H   0  0  0  0  0  0  0  0  0  0  0  0
   -5.7996   -7.5362   -1.9274 H   0  0  0  0  0  0  0  0  0  0  0  0
   -6.2837   -5.7953   -2.1272 H   0  0  0  0  0  0  0  0  0  0  0  0
   -7.1482   -7.3127    0.5951 H   0  0  0  0  0  0  0  0  0  0  0  0
   -7.3042   -4.5058   -0.0810 H   0  0  0  0  0  0  0  0  0  0  0  0
   -6.8137   -5.0124    2.9140 H   0  0  0  0  0  0  0  0  0  0  0  0
   -7.4340   -3.4598    2.1967 H   0  0  0  0  0  0  0  0  0  0  0  0
   -5.7867   -4.0499    1.7741 H   0  0  0  0  0  0  0  0  0  0  0  0
  -10.1285   -6.9144    0.1276 H   0  0  0  0  0  0  0  0  0  0  0  0
  -11.0781   -5.7280   -1.5691 H   0  0  0  0  0  0  0  0  0  0  0  0
   -8.4387   -4.2166   -1.9674 H   0  0  0  0  0  0  0  0  0  0  0  0
   -8.7503   -5.9063   -2.5189 H   0  0  0  0  0  0  0  0  0  0  0  0
   -9.7522   -4.5450   -3.1411 H   0  0  0  0  0  0  0  0  0  0  0  0
  -12.6212   -2.8622   -1.0848 H   0  0  0  0  0  0  0  0  0  0  0  0
  -12.4878   -5.2588    0.8230 H   0  0  0  0  0  0  0  0  0  0  0  0
  -14.6154   -4.6146   -1.3350 H   0  0  0  0  0  0  0  0  0  0  0  0
  -13.3465   -5.8782   -1.4803 H   0  0  0  0  0  0  0  0  0  0  0  0
  -14.6151   -6.0375   -0.2225 H   0  0  0  0  0  0  0  0  0  0  0  0
  -14.8151   -1.8646    1.4832 H   0  0  0  0  0  0  0  0  0  0  0  0
  -11.8500   -2.4070    1.8220 H   0  0  0  0  0  0  0  0  0  0  0  0
  -11.9658   -0.8216    3.7533 H   0  0  0  0  0  0  0  0  0  0  0  0
  -12.8984   -2.3450    3.9618 H   0  0  0  0  0  0  0  0  0  0  0  0
  -13.7582   -0.8157    3.6269 H   0  0  0  0  0  0  0  0  0  0  0  0
  -12.9314    1.0851   -0.2275 H   0  0  0  0  0  0  0  0  0  0  0  0
  -14.7545    0.2637    2.0750 H   0  0  0  0  0  0  0  0  0  0  0  0
  -16.6388    0.9475    0.6519 H   0  0  0  0  0  0  0  0  0  0  0  0
  -15.6653   -0.2976   -0.2111 H   0  0  0  0  0  0  0  0  0  0  0  0
  -15.5087    1.4394   -0.6703 H   0  0  0  0  0  0  0  0  0  0  0  0
  -13.8641    4.1687    0.8730 H   0  0  0  0  0  0  0  0  0  0  0  0
  -11.9030    2.2275    2.1743 H   0  0  0  0  0  0  0  0  0  0  0  0
  -12.2617    5.2634    2.6104 H   0  0  0  0  0  0  0  0  0  0  0  0
  -12.7102    3.9572    3.7612 H   0  0  0  0  0  0  0  0  0  0  0  0
  -10.9792    4.2254    3.3438 H   0  0  0  0  0  0  0  0  0  0  0  0
  -12.0613    5.0918   -0.5171 H   0  0  0  0  0  0  0  0  0  0  0  0
  -10.0035    5.9622    1.3617 H   0  0  0  0  0  0  0  0  0  0  0  0
  -10.8685    7.1596   -1.3468 H   0  0  0  0  0  0  0  0  0  0  0  0
   -9.8423    7.9920   -0.1216 H   0  0  0  0  0  0  0  0  0  0  0  0
  -11.5428    7.5523    0.2841 H   0  0  0  0  0  0  0  0  0  0  0  0
   -6.9705    4.6215   -0.2498 H   0  0  0  0  0  0  0  0  0  0  0  0
   -7.9975    5.3345    2.3252 H   0  0  0  0  0  0  0  0  0  0  0  0
   -6.8442    7.6832    2.5028 H   0  0  0  0  0  0  0  0  0  0  0  0
   -6.9640    7.7363    0.7080 H   0  0  0  0  0  0  0  0  0  0  0  0
   -8.4460    7.6134    1.7255 H   0  0  0  0  0  0  0  0  0  0  0  0
   -3.9842    6.2264    1.9932 H   0  0  0  0  0  0  0  0  0  0  0  0
   -4.7083    4.5533   -0.3006 H   0  0  0  0  0  0  0  0  0  0  0  0
   -5.1774    8.6667   -1.4591 H   0  0  0  0  0  0  0  0  0  0  0  0
   -4.2297    8.3342    0.0315 H   0  0  0  0  0  0  0  0  0  0  0  0
   -2.3989    6.5765   -0.0359 H   0  0  0  0  0  0  0  0  0  0  0  0
   -2.3522    4.9098    0.6017 H   0  0  0  0  0  0  0  0  0  0  0  0
   -2.8041    2.6460   -2.3530 H   0  0  0  0  0  0  0  0  0  0  0  0
   -2.9700    2.9436   -0.6092 H   0  0  0  0  0  0  0  0  0  0  0  0
  1  2  1  0
  2  3  2  0
  2  4  1  0
  4  5  1  0
  5  6  1  0
  6  7  1  0
  7  8  1  0
  8  9  1  0
  9 10  2  0
 10 11  1  0
 11 12  2  0
 12 13  1  0
 13 14  2  0
 13 15  1  0
 15 16  1  0
 16 17  1  0
 17 18  1  0
 18 19  1  0
 19 20  1  0
 20 21  2  0
 20 22  1  0
 22 23  1  0
 22 24  1  0
 24 25  1  0
 25 26  2  0
 25 27  1  0
 27 28  1  0
 27 29  1  0
 29 30  1  0
 30 31  2  0
 30 32  1  0
 32 33  1  0
 32 34  1  0
 34 35  1  0
 35 36  2  0
 35 37  1  0
 37 38  1  0
 37 39  1  0
 39 40  1  0
 40 41  2  0
 40 42  1  0
 42 43  1  0
 42 44  1  0
 44 45  1  0
 45 46  2  0
 45 47  1  0
 47 48  1  0
 47 49  1  0
 49 50  1  0
 50 51  2  0
 50 52  1  0
 52 53  1  0
 52 54  1  0
 54 55  1  0
 55 56  2  0
 55 57  1  0
 57 58  1  0
 57 59  1  0
 59 60  1  0
 60 61  2  0
 60 62  1  0
 62 63  1  0
 62 64  1  0
 64 65  1  0
 65 66  2  0
 65 67  1  0
 67 68  1  0
 67 69  1  0
 69 70  1  0
 70 71  2  0
 18 72  1  0
 72 73  2  0
 72 74  1  0
 74 75  1  0
 75 76  1  0
 75 77  1  0
 77 78  2  0
 77 79  1  0
 79 80  1  0
 80 81  1  0
 80 82  1  0
 82 83  2  0
 82 84  1  0
 84 85  1  0
 85 86  1  0
 85 87  1  0
 87 88  2  0
 87 89  1  0
 89 90  1  0
 90 91  1  0
 90 92  1  0
 92 93  2  0
 92 94  1  0
 94 95  1  0
 95 96  1  0
 95 97  1  0
 97 98  2  0
 97 99  1  0
 99100  1  0
100101  1  0
100102  1  0
102103  2  0
102104  1  0
104105  1  0
105106  1  0
105107  1  0
107108  2  0
107109  1  0
109110  1  0
110111  1  0
110112  1  0
112113  2  0
112114  1  0
114115  1  0
115116  1  0
115117  1  0
117118  2  0
117119  1  0
119120  1  0
120121  1  0
120122  1  0
122123  2  0
122124  1  0
124125  1  0
125126  1  0
126127  1  0
126128  2  0
125129  1  0
129130  1  0
130131  1  0
 70  5  1  0
 14  9  1  0
131 11  1  0
  1132  1  0
  1133  1  0
  1134  1  0
  4135  1  0
  5136  1  1
  6137  1  0
  6138  1  0
  8139  1  0
  8140  1  0
 10141  1  0
 12142  1  0
 14143  1  0
 15144  1  0
 15145  1  0
 17146  1  0
 17147  1  0
 18148  1  1
 19149  1  0
 22150  1  1
 23151  1  0
 23152  1  0
 23153  1  0
 24154  1  0
 27155  1  6
 28156  1  0
 28157  1  0
 28158  1  0
 29159  1  0
 32160  1  1
 33161  1  0
 33162  1  0
 33163  1  0
 34164  1  0
 37165  1  1
 38166  1  0
 38167  1  0
 38168  1  0
 39169  1  0
 42170  1  1
 43171  1  0
 43172  1  0
 43173  1  0
 44174  1  0
 47175  1  1
 48176  1  0
 48177  1  0
 48178  1  0
 49179  1  0
 52180  1  1
 53181  1  0
 53182  1  0
 53183  1  0
 54184  1  0
 57185  1  1
 58186  1  0
 58187  1  0
 58188  1  0
 59189  1  0
 62190  1  1
 63191  1  0
 63192  1  0
 63193  1  0
 64194  1  0
 67195  1  6
 68196  1  0
 68197  1  0
 68198  1  0
 69199  1  0
 74200  1  0
 75201  1  1
 76202  1  0
 76203  1  0
 76204  1  0
 79205  1  0
 80206  1  6
 81207  1  0
 81208  1  0
 81209  1  0
 84210  1  0
 85211  1  6
 86212  1  0
 86213  1  0
 86214  1  0
 89215  1  0
 90216  1  6
 91217  1  0
 91218  1  0
 91219  1  0
 94220  1  0
 95221  1  1
 96222  1  0
 96223  1  0
 96224  1  0
 99225  1  0
100226  1  1
101227  1  0
101228  1  0
101229  1  0
104230  1  0
105231  1  1
106232  1  0
106233  1  0
106234  1  0
109235  1  0
110236  1  1
111237  1  0
111238  1  0
111239  1  0
114240  1  0
115241  1  1
116242  1  0
116243  1  0
116244  1  0
119245  1  0
120246  1  1
121247  1  0
121248  1  0
121249  1  0
124250  1  0
125251  1  6
127252  1  0
127253  1  0
129254  1  0
129255  1  0
131256  1  0
131257  1  0
M  END
