
     RDKit          3D

247249  0  0  0  0  0  0  0  0999 V2000
   -3.4719   -9.3810   -2.6674 C   0  0  0  0  0  0  0  0  0  0  0  0
   -2.8347   -8.3891   -1.7431 C   0  0  0  0  0  0  0  0  0  0  0  0
   -1.7020   -8.6523   -1.2505 O   0  0  0  0  0  0  0  0  0  0  0  0
   -3.4701   -7.1323   -1.4685 N   0  0  0  0  0  0  0  0  0  0  0  0
   -3.4902   -6.5137   -0.1308 C   0  0  2  0  0  0  0  0  0  0  0  0
   -2.0795   -6.0592    0.3181 C   0  0  0  0  0  0  0  0  0  0  0  0
   -2.0175   -4.2709    0.6868 S   0  0  0  0  0  0  0  0  0  0  0  0
   -1.8421   -3.7113   -1.0395 C   0  0  0  0  0  0  0  0  0  0  0  0
   -0.5025   -3.0564   -1.2200 C   0  0  0  0  0  0  0  0  0  0  0  0
   -0.3629   -1.6741   -1.0076 C   0  0  0  0  0  0  0  0  0  0  0  0
    0.8799   -1.0452   -1.2027 C   0  0  0  0  0  0  0  0  0  0  0  0
    1.9943   -1.8197   -1.5781 C   0  0  0  0  0  0  0  0  0  0  0  0
    1.8713   -3.2130   -1.7592 C   0  0  0  0  0  0  0  0  0  0  0  0
    0.6192   -3.8218   -1.5854 C   0  0  0  0  0  0  0  0  0  0  0  0
    3.0712   -4.0241   -2.1654 C   0  0  0  0  0  0  0  0  0  0  0  0
    4.3681   -3.9841   -0.8752 S   0  0  0  0  0  0  0  0  0  0  0  0
    3.8623   -5.4852    0.0405 C   0  0  0  0  0  0  0  0  0  0  0  0
    5.0489   -6.0143    0.8614 C   0  0  1  0  0  0  0  0  0  0  0  0
    4.6076   -6.9700    1.9366 C   0  0  0  0  0  0  0  0  0  0  0  0
    3.8448   -8.1346    1.6175 N   0  0  0  0  0  0  0  0  0  0  0  0
    4.9827   -6.7906    3.1335 O   0  0  0  0  0  0  0  0  0  0  0  0
    6.0029   -6.6950   -0.0218 N   0  0  0  0  0  0  0  0  0  0  0  0
    7.4148   -6.4258   -0.0022 C   0  0  0  0  0  0  0  0  0  0  0  0
    8.2131   -7.4029   -0.0146 O   0  0  0  0  0  0  0  0  0  0  0  0
    7.9507   -5.0054   -0.0327 C   0  0  1  0  0  0  0  0  0  0  0  0
    8.7053   -4.6585    1.2555 C   0  0  0  0  0  0  0  0  0  0  0  0
    8.7682   -4.7755   -1.2385 N   0  0  0  0  0  0  0  0  0  0  0  0
    9.8831   -5.5925   -1.6271 C   0  0  0  0  0  0  0  0  0  0  0  0
    9.8030   -6.2872   -2.6794 O   0  0  0  0  0  0  0  0  0  0  0  0
   11.1839   -5.5818   -0.8540 C   0  0  1  0  0  0  0  0  0  0  0  0
   11.5139   -6.9842   -0.3443 C   0  0  0  0  0  0  0  0  0  0  0  0
   12.2689   -5.1042   -1.7130 N   0  0  0  0  0  0  0  0  0  0  0  0
   12.9174   -3.8326   -1.5384 C   0  0  0  0  0  0  0  0  0  0  0  0
   13.0868   -3.0974   -2.5543 O   0  0  0  0  0  0  0  0  0  0  0  0
   13.3777   -3.3311   -0.1827 C   0  0  1  0  0  0  0  0  0  0  0  0
   13.8868   -4.4611    0.7263 C   0  0  0  0  0  0  0  0  0  0  0  0
   14.4634   -2.3582   -0.3539 N   0  0  0  0  0  0  0  0  0  0  0  0
   14.7357   -1.2954    0.5708 C   0  0  0  0  0  0  0  0  0  0  0  0
   15.9401   -0.9746    0.7862 O   0  0  0  0  0  0  0  0  0  0  0  0
   13.6331   -0.5318    1.2663 C   0  0  1  0  0  0  0  0  0  0  0  0
   13.3987   -1.1027    2.6710 C   0  0  0  0  0  0  0  0  0  0  0  0
   13.9859    0.8878    1.3442 N   0  0  0  0  0  0  0  0  0  0  0  0
   14.0137    1.7279    0.1797 C   0  0  0  0  0  0  0  0  0  0  0  0
   15.0628    2.3940   -0.0591 O   0  0  0  0  0  0  0  0  0  0  0  0
   12.8263    1.9056   -0.7342 C   0  0  1  0  0  0  0  0  0  0  0  0
   12.7787    0.8478   -1.8397 C   0  0  0  0  0  0  0  0  0  0  0  0
   11.5694    1.9259    0.0244 N   0  0  0  0  0  0  0  0  0  0  0  0
   11.2041    3.0859    0.7769 C   0  0  0  0  0  0  0  0  0  0  0  0
   11.7167    3.2682    1.9114 O   0  0  0  0  0  0  0  0  0  0  0  0
   10.2788    4.1263    0.2059 C   0  0  1  0  0  0  0  0  0  0  0  0
   11.0743    5.1927   -0.5525 C   0  0  0  0  0  0  0  0  0  0  0  0
    9.2922    3.5219   -0.6959 N   0  0  0  0  0  0  0  0  0  0  0  0
    7.9279    3.2564   -0.3310 C   0  0  0  0  0  0  0  0  0  0  0  0
    7.4651    2.0962   -0.5402 O   0  0  0  0  0  0  0  0  0  0  0  0
    6.9919    4.2974    0.2495 C   0  0  1  0  0  0  0  0  0  0  0  0
    6.9169    4.1850    1.7714 C   0  0  0  0  0  0  0  0  0  0  0  0
    7.3801    5.6607   -0.1442 N   0  0  0  0  0  0  0  0  0  0  0  0
    6.6057    6.5089   -1.0001 C   0  0  0  0  0  0  0  0  0  0  0  0
    7.2097    7.2442   -1.8246 O   0  0  0  0  0  0  0  0  0  0  0  0
    5.0982    6.5943   -0.8944 C   0  0  1  0  0  0  0  0  0  0  0  0
    4.6982    8.0404   -0.5667 C   0  0  0  0  0  0  0  0  0  0  0  0
    4.4914    6.1446   -2.1579 N   0  0  0  0  0  0  0  0  0  0  0  0
    3.1638    5.6206   -2.2466 C   0  0  0  0  0  0  0  0  0  0  0  0
    2.9878    4.5105   -2.8261 O   0  0  0  0  0  0  0  0  0  0  0  0
    1.9639    6.4017   -1.7522 C   0  0  1  0  0  0  0  0  0  0  0  0
    0.7690    6.2699   -2.6923 C   0  0  0  0  0  0  0  0  0  0  0  0
    1.5960    6.0561   -0.3719 N   0  0  0  0  0  0  0  0  0  0  0  0
    1.8482    4.7969    0.2753 C   0  0  0  0  0  0  0  0  0  0  0  0
    2.6623    4.7818    1.2393 O   0  0  0  0  0  0  0  0  0  0  0  0
    1.1751    3.5153   -0.1754 C   0  0  1  0  0  0  0  0  0  0  0  0
    1.2459    2.3538    0.8813 C   0  0  0  0  0  0  0  0  0  0  0  0
    2.1651    0.8941    0.2717 S   0  0  0  0  0  0  0  0  0  0  0  0
    1.0068    0.4546   -1.0746 C   0  0  0  0  0  0  0  0  0  0  0  0
   -0.2098    3.7536   -0.6195 N   0  0  0  0  0  0  0  0  0  0  0  0
   -1.3848    3.6640    0.2060 C   0  0  0  0  0  0  0  0  0  0  0  0
   -2.1352    2.6650    0.0639 O   0  0  0  0  0  0  0  0  0  0  0  0
   -1.8062    4.7451    1.1828 C   0  0  1  0  0  0  0  0  0  0  0  0
   -0.9323    4.7345    2.4395 C   0  0  0  0  0  0  0  0  0  0  0  0
   -1.7862    6.0593    0.5491 N   0  0  0  0  0  0  0  0  0  0  0  0
   -2.4949    7.1731    1.1121 C   0  0  0  0  0  0  0  0  0  0  0  0
   -1.8442    8.2082    1.4335 O   0  0  0  0  0  0  0  0  0  0  0  0
   -3.9949    7.1402    1.3302 C   0  0  1  0  0  0  0  0  0  0  0  0
   -4.2805    6.9368    2.8227 C   0  0  0  0  0  0  0  0  0  0  0  0
   -4.6134    8.3871    0.8446 N   0  0  0  0  0  0  0  0  0  0  0  0
   -6.0195    8.6948    0.8040 C   0  0  0  0  0  0  0  0  0  0  0  0
   -6.3669    9.8899    0.5819 O   0  0  0  0  0  0  0  0  0  0  0  0
   -7.1086    7.6631    0.9951 C   0  0  1  0  0  0  0  0  0  0  0  0
   -7.9078    7.9717    2.2662 C   0  0  0  0  0  0  0  0  0  0  0  0
   -8.0234    7.6740   -0.1619 N   0  0  0  0  0  0  0  0  0  0  0  0
   -8.9130    6.5675   -0.4089 C   0  0  0  0  0  0  0  0  0  0  0  0
   -8.4781    5.3900   -0.3055 O   0  0  0  0  0  0  0  0  0  0  0  0
  -10.3955    6.7791   -0.6690 C   0  0  1  0  0  0  0  0  0  0  0  0
  -10.7459    8.1648   -1.2111 C   0  0  0  0  0  0  0  0  0  0  0  0
  -10.8668    5.7666   -1.6260 N   0  0  0  0  0  0  0  0  0  0  0  0
  -12.1567    5.1346   -1.5920 C   0  0  0  0  0  0  0  0  0  0  0  0
  -12.6878    4.7777   -2.6787 O   0  0  0  0  0  0  0  0  0  0  0  0
  -12.9084    4.8748   -0.3024 C   0  0  1  0  0  0  0  0  0  0  0  0
  -14.0842    5.8516   -0.1853 C   0  0  0  0  0  0  0  0  0  0  0  0
  -13.3916    3.4912   -0.2951 N   0  0  0  0  0  0  0  0  0  0  0  0
  -12.5211    2.3948    0.0284 C   0  0  0  0  0  0  0  0  0  0  0  0
  -11.4014    2.6227    0.5591 O   0  0  0  0  0  0  0  0  0  0  0  0
  -12.9018    0.9431   -0.2138 C   0  0  1  0  0  0  0  0  0  0  0  0
  -14.3743    0.7257   -0.5546 C   0  0  0  0  0  0  0  0  0  0  0  0
  -12.0618    0.3942   -1.2890 N   0  0  0  0  0  0  0  0  0  0  0  0
  -11.1658   -0.7333   -1.2203 C   0  0  0  0  0  0  0  0  0  0  0  0
  -10.4601   -0.9863   -2.2304 O   0  0  0  0  0  0  0  0  0  0  0  0
  -11.0116   -1.6472   -0.0208 C   0  0  1  0  0  0  0  0  0  0  0  0
  -10.2824   -0.9793    1.1439 C   0  0  0  0  0  0  0  0  0  0  0  0
  -12.2922   -2.2339    0.3947 N   0  0  0  0  0  0  0  0  0  0  0  0
  -12.6332   -3.6111    0.1885 C   0  0  0  0  0  0  0  0  0  0  0  0
  -13.7965   -3.9003   -0.2204 O   0  0  0  0  0  0  0  0  0  0  0  0
  -11.6357   -4.7075    0.4569 C   0  0  1  0  0  0  0  0  0  0  0  0
  -12.3256   -5.8736    1.1866 C   0  0  0  0  0  0  0  0  0  0  0  0
  -11.0376   -5.1561   -0.8078 N   0  0  0  0  0  0  0  0  0  0  0  0
   -9.8229   -5.9210   -0.9319 C   0  0  0  0  0  0  0  0  0  0  0  0
   -9.4201   -6.2163   -2.0910 O   0  0  0  0  0  0  0  0  0  0  0  0
   -9.0406   -6.4381    0.2580 C   0  0  1  0  0  0  0  0  0  0  0  0
   -9.2999   -7.9312    0.4511 C   0  0  0  0  0  0  0  0  0  0  0  0
   -7.6085   -6.2184    0.0571 N   0  0  0  0  0  0  0  0  0  0  0  0
   -6.8633   -5.3177    0.8843 C   0  0  0  0  0  0  0  0  0  0  0  0
   -7.1020   -4.0792    0.8203 O   0  0  0  0  0  0  0  0  0  0  0  0
   -5.8379   -5.8405    1.8671 C   0  0  1  0  0  0  0  0  0  0  0  0
   -6.4280   -5.8748    3.2774 C   0  0  0  0  0  0  0  0  0  0  0  0
   -5.3962   -7.1806    1.4768 N   0  0  0  0  0  0  0  0  0  0  0  0
   -4.1235   -7.4593    0.8722 C   0  0  0  0  0  0  0  0  0  0  0  0
   -3.5543   -8.5515    1.1335 O   0  0  0  0  0  0  0  0  0  0  0  0
   -4.4801   -9.0321   -2.9856 H   0  0  0  0  0  0  0  0  0  0  0  0
   -3.6020  -10.3498   -2.1434 H   0  0  0  0  0  0  0  0  0  0  0  0
   -2.8424   -9.5403   -3.5703 H   0  0  0  0  0  0  0  0  0  0  0  0
   -4.1169   -6.7398   -2.1930 H   0  0  0  0  0  0  0  0  0  0  0  0
   -4.1390   -5.6157   -0.2144 H   0  0  0  0  0  0  0  0  0  0  0  0
   -1.7673   -6.5981    1.2435 H   0  0  0  0  0  0  0  0  0  0  0  0
   -1.3054   -6.2932   -0.4397 H   0  0  0  0  0  0  0  0  0  0  0  0
   -1.9753   -4.5337   -1.7678 H   0  0  0  0  0  0  0  0  0  0  0  0
   -2.6588   -2.9897   -1.2545 H   0  0  0  0  0  0  0  0  0  0  0  0
   -1.2206   -1.0787   -0.6978 H   0  0  0  0  0  0  0  0  0  0  0  0
    2.9580   -1.3453   -1.7129 H   0  0  0  0  0  0  0  0  0  0  0  0
    0.5203   -4.8855   -1.6985 H   0  0  0  0  0  0  0  0  0  0  0  0
    3.4920   -3.5729   -3.0863 H   0  0  0  0  0  0  0  0  0  0  0  0
    2.7918   -5.0651   -2.4273 H   0  0  0  0  0  0  0  0  0  0  0  0
    3.5428   -6.2698   -0.6794 H   0  0  0  0  0  0  0  0  0  0  0  0
    3.0114   -5.2300    0.7038 H   0  0  0  0  0  0  0  0  0  0  0  0
    5.5421   -5.1529    1.3630 H   0  0  0  0  0  0  0  0  0  0  0  0
    3.3523   -8.2280    0.7010 H   0  0  0  0  0  0  0  0  0  0  0  0
    3.7970   -8.9216    2.3053 H   0  0  0  0  0  0  0  0  0  0  0  0
    5.6873   -7.5870   -0.4612 H   0  0  0  0  0  0  0  0  0  0  0  0
    7.0973   -4.2986   -0.0963 H   0  0  0  0  0  0  0  0  0  0  0  0
    7.9860   -4.5513    2.1007 H   0  0  0  0  0  0  0  0  0  0  0  0
    9.2328   -3.6907    1.1419 H   0  0  0  0  0  0  0  0  0  0  0  0
    9.4381   -5.4544    1.5316 H   0  0  0  0  0  0  0  0  0  0  0  0
    8.3506   -4.1627   -1.9776 H   0  0  0  0  0  0  0  0  0  0  0  0
   11.0787   -4.9018    0.0093 H   0  0  0  0  0  0  0  0  0  0  0  0
   11.5018   -7.7247   -1.1769 H   0  0  0  0  0  0  0  0  0  0  0  0
   10.7850   -7.2998    0.4325 H   0  0  0  0  0  0  0  0  0  0  0  0
   12.5266   -7.0012    0.1078 H   0  0  0  0  0  0  0  0  0  0  0  0
   12.4293   -5.6040   -2.6183 H   0  0  0  0  0  0  0  0  0  0  0  0
   12.5080   -2.8480    0.3047 H   0  0  0  0  0  0  0  0  0  0  0  0
   13.0395   -4.9895    1.2063 H   0  0  0  0  0  0  0  0  0  0  0  0
   14.5096   -4.0404    1.5493 H   0  0  0  0  0  0  0  0  0  0  0  0
   14.5059   -5.1832    0.1531 H   0  0  0  0  0  0  0  0  0  0  0  0
   15.2581   -2.6376   -0.9775 H   0  0  0  0  0  0  0  0  0  0  0  0
   12.6824   -0.6401    0.7139 H   0  0  0  0  0  0  0  0  0  0  0  0
   13.0707   -2.1657    2.6057 H   0  0  0  0  0  0  0  0  0  0  0  0
   12.5934   -0.5261    3.1707 H   0  0  0  0  0  0  0  0  0  0  0  0
   14.3220   -1.0479    3.2891 H   0  0  0  0  0  0  0  0  0  0  0  0
   14.6175    1.1650    2.1295 H   0  0  0  0  0  0  0  0  0  0  0  0
   12.9400    2.8805   -1.2518 H   0  0  0  0  0  0  0  0  0  0  0  0
   12.6079   -0.1767   -1.4506 H   0  0  0  0  0  0  0  0  0  0  0  0
   11.9437    1.0860   -2.5345 H   0  0  0  0  0  0  0  0  0  0  0  0
   13.7245    0.8559   -2.4241 H   0  0  0  0  0  0  0  0  0  0  0  0
   11.1157    1.0175    0.2768 H   0  0  0  0  0  0  0  0  0  0  0  0
    9.7775    4.6245    1.0623 H   0  0  0  0  0  0  0  0  0  0  0  0
   11.5634    4.7628   -1.4471 H   0  0  0  0  0  0  0  0  0  0  0  0
   10.4035    6.0009   -0.8959 H   0  0  0  0  0  0  0  0  0  0  0  0
   11.8551    5.6341    0.1067 H   0  0  0  0  0  0  0  0  0  0  0  0
    9.6614    3.0226   -1.5357 H   0  0  0  0  0  0  0  0  0  0  0  0
    5.9799    4.0737   -0.1537 H   0  0  0  0  0  0  0  0  0  0  0  0
    6.1560    4.8949    2.1602 H   0  0  0  0  0  0  0  0  0  0  0  0
    6.6179    3.1568    2.0648 H   0  0  0  0  0  0  0  0  0  0  0  0
    7.8825    4.4219    2.2558 H   0  0  0  0  0  0  0  0  0  0  0  0
    8.2959    6.0392    0.1796 H   0  0  0  0  0  0  0  0  0  0  0  0
    4.7467    5.9529   -0.0593 H   0  0  0  0  0  0  0  0  0  0  0  0
    4.7634    8.6747   -1.4720 H   0  0  0  0  0  0  0  0  0  0  0  0
    5.3651    8.4621    0.2208 H   0  0  0  0  0  0  0  0  0  0  0  0
    3.6700    8.0766   -0.1565 H   0  0  0  0  0  0  0  0  0  0  0  0
    5.1169    5.9491   -2.9680 H   0  0  0  0  0  0  0  0  0  0  0  0
    2.2335    7.4768   -1.7860 H   0  0  0  0  0  0  0  0  0  0  0  0
    0.4545    5.2157   -2.8241 H   0  0  0  0  0  0  0  0  0  0  0  0
    1.0249    6.6721   -3.6952 H   0  0  0  0  0  0  0  0  0  0  0  0
   -0.0942    6.8592   -2.3042 H   0  0  0  0  0  0  0  0  0  0  0  0
    1.4401    6.8685    0.2706 H   0  0  0  0  0  0  0  0  0  0  0  0
    1.7521    3.1790   -1.0571 H   0  0  0  0  0  0  0  0  0  0  0  0
    0.2438    2.0018    1.1976 H   0  0  0  0  0  0  0  0  0  0  0  0
    1.7371    2.6701    1.8238 H   0  0  0  0  0  0  0  0  0  0  0  0
    1.3978    0.8721   -2.0312 H   0  0  0  0  0  0  0  0  0  0  0  0
    0.0156    0.9098   -0.8985 H   0  0  0  0  0  0  0  0  0  0  0  0
   -0.3864    3.5461   -1.6239 H   0  0  0  0  0  0  0  0  0  0  0  0
   -2.8426    4.5189    1.5124 H   0  0  0  0  0  0  0  0  0  0  0  0
   -1.3380    5.4346    3.1938 H   0  0  0  0  0  0  0  0  0  0  0  0
   -0.9027    3.7182    2.8848 H   0  0  0  0  0  0  0  0  0  0  0  0
    0.1050    5.0653    2.2133 H   0  0  0  0  0  0  0  0  0  0  0  0
   -0.9691    6.2951   -0.0497 H   0  0  0  0  0  0  0  0  0  0  0  0
   -4.4116    6.2852    0.7527 H   0  0  0  0  0  0  0  0  0  0  0  0
   -5.3381    6.6760    2.9944 H   0  0  0  0  0  0  0  0  0  0  0  0
   -4.0447    7.8616    3.3957 H   0  0  0  0  0  0  0  0  0  0  0  0
   -3.6692    6.1057    3.2386 H   0  0  0  0  0  0  0  0  0  0  0  0
   -3.9813    9.1660    0.5350 H   0  0  0  0  0  0  0  0  0  0  0  0
   -6.6652    6.6482    1.0895 H   0  0  0  0  0  0  0  0  0  0  0  0
   -8.4377    8.9486    2.1630 H   0  0  0  0  0  0  0  0  0  0  0  0
   -7.2361    8.0222    3.1478 H   0  0  0  0  0  0  0  0  0  0  0  0
   -8.6595    7.1763    2.4421 H   0  0  0  0  0  0  0  0  0  0  0  0
   -8.1943    8.5734   -0.6556 H   0  0  0  0  0  0  0  0  0  0  0  0
  -10.9096    6.6707    0.3100 H   0  0  0  0  0  0  0  0  0  0  0  0
  -10.3099    8.3199   -2.2203 H   0  0  0  0  0  0  0  0  0  0  0  0
  -10.4098    8.9771   -0.5215 H   0  0  0  0  0  0  0  0  0  0  0  0
  -11.8500    8.2512   -1.3151 H   0  0  0  0  0  0  0  0  0  0  0  0
  -10.3289    5.6695   -2.5170 H   0  0  0  0  0  0  0  0  0  0  0  0
  -12.2617    5.0237    0.5870 H   0  0  0  0  0  0  0  0  0  0  0  0
  -14.7974    5.7129   -1.0316 H   0  0  0  0  0  0  0  0  0  0  0  0
  -13.7166    6.9010   -0.1947 H   0  0  0  0  0  0  0  0  0  0  0  0
  -14.6346    5.6743    0.7683 H   0  0  0  0  0  0  0  0  0  0  0  0
  -14.3702    3.3050   -0.6130 H   0  0  0  0  0  0  0  0  0  0  0  0
  -12.7144    0.4329    0.7394 H   0  0  0  0  0  0  0  0  0  0  0  0
  -15.0260    1.1384    0.2504 H   0  0  0  0  0  0  0  0  0  0  0  0
  -14.6303    1.1998   -1.5241 H   0  0  0  0  0  0  0  0  0  0  0  0
  -14.5880   -0.3628   -0.6426 H   0  0  0  0  0  0  0  0  0  0  0  0
  -12.0837    0.9090   -2.2049 H   0  0  0  0  0  0  0  0  0  0  0  0
  -10.3421   -2.4810   -0.3446 H   0  0  0  0  0  0  0  0  0  0  0  0
  -10.7672   -0.0483    1.4812 H   0  0  0  0  0  0  0  0  0  0  0  0
  -10.2306   -1.6777    2.0058 H   0  0  0  0  0  0  0  0  0  0  0  0
   -9.2455   -0.7168    0.8376 H   0  0  0  0  0  0  0  0  0  0  0  0
  -13.0469   -1.6359    0.7936 H   0  0  0  0  0  0  0  0  0  0  0  0
  -10.8500   -4.2889    1.1213 H   0  0  0  0  0  0  0  0  0  0  0  0
  -12.9809   -6.4390    0.4863 H   0  0  0  0  0  0  0  0  0  0  0  0
  -11.5815   -6.5632    1.6250 H   0  0  0  0  0  0  0  0  0  0  0  0
  -12.9378   -5.4839    2.0314 H   0  0  0  0  0  0  0  0  0  0  0  0
  -11.5134   -4.8928   -1.6947 H   0  0  0  0  0  0  0  0  0  0  0  0
   -9.3549   -5.9110    1.1815 H   0  0  0  0  0  0  0  0  0  0  0  0
  -10.3877   -8.1480    0.4605 H   0  0  0  0  0  0  0  0  0  0  0  0
   -8.8271   -8.5166   -0.3671 H   0  0  0  0  0  0  0  0  0  0  0  0
   -8.8531   -8.2571    1.4140 H   0  0  0  0  0  0  0  0  0  0  0  0
   -7.0794   -6.8077   -0.6251 H   0  0  0  0  0  0  0  0  0  0  0  0
   -4.9805   -5.1476    1.8772 H   0  0  0  0  0  0  0  0  0  0  0  0
   -6.7317   -4.8573    3.6024 H   0  0  0  0  0  0  0  0  0  0  0  0
   -7.3130   -6.5445    3.3161 H   0  0  0  0  0  0  0  0  0  0  0  0
   -5.6607   -6.2537    3.9924 H   0  0  0  0  0  0  0  0  0  0  0  0
   -5.9878   -8.0042    1.7572 H   0  0  0  0  0  0  0  0  0  0  0  0
  1  2  1  0
  2  3  2  0
  2  4  1  0
  4  5  1  0
  5  6  1  0
  6  7  1  0
  7  8  1  0
  8  9  1  0
  9 10  2  0
 10 11  1  0
 11 12  2  0
 12 13  1  0
 13 14  2  0
 13 15  1  0
 15 16  1  0
 16 17  1  0
 17 18  1  0
 18 19  1  0
 19 20  1  0
 19 21  2  0
 18 22  1  0
 22 23  1  0
 23 24  2  0
 23 25  1  0
 25 26  1  0
 25 27  1  0
 27 28  1  0
 28 29  2  0
 28 30  1  0
 30 31  1  0
 30 32  1  0
 32 33  1  0
 33 34  2  0
 33 35  1  0
 35 36  1  0
 35 37  1  0
 37 38  1  0
 38 39  2  0
 38 40  1  0
 40 41  1  0
 40 42  1  0
 42 43  1  0
 43 44  2  0
 43 45  1  0
 45 46  1  0
 45 47  1  0
 47 48  1  0
 48 49  2  0
 48 50  1  0
 50 51  1  0
 50 52  1  0
 52 53  1  0
 53 54  2  0
 53 55  1  0
 55 56  1  0
 55 57  1  0
 57 58  1  0
 58 59  2  0
 58 60  1  0
 60 61  1  0
 60 62  1  0
 62 63  1  0
 63 64  2  0
 63 65  1  0
 65 66  1  0
 65 67  1  0
 67 68  1  0
 68 69  2  0
 68 70  1  0
 70 71  1  0
 71 72  1  0
 72 73  1  0
 70 74  1  0
 74 75  1  0
 75 76  2  0
 75 77  1  0
 77 78  1  0
 77 79  1  0
 79 80  1  0
 80 81  2  0
 80 82  1  0
 82 83  1  0
 82 84  1  0
 84 85  1  0
 85 86  2  0
 85 87  1  0
 87 88  1  0
 87 89  1  0
 89 90  1  0
 90 91  2  0
 90 92  1  0
 92 93  1  0
 92 94  1  0
 94 95  1  0
 95 96  2  0
 95 97  1  0
 97 98  1  0
 97 99  1  0
 99100  1  0
100101  2  0
100102  1  0
102103  1  0
102104  1  0
104105  1  0
105106  2  0
105107  1  0
107108  1  0
107109  1  0
109110  1  0
110111  2  0
110112  1  0
112113  1  0
112114  1  0
114115  1  0
115116  2  0
115117  1  0
117118  1  0
117119  1  0
119120  1  0
120121  2  0
120122  1  0
122123  1  0
122124  1  0
124125  1  0
125126  2  0
125  5  1  0
 14  9  1  0
 73 11  1  0
  1127  1  0
  1128  1  0
  1129  1  0
  4130  1  0
  5131  1  6
  6132  1  0
  6133  1  0
  8134  1  0
  8135  1  0
 10136  1  0
 12137  1  0
 14138  1  0
 15139  1  0
 15140  1  0
 17141  1  0
 17142  1  0
 18143  1  1
 20144  1  0
 20145  1  0
 22146  1  0
 25147  1  6
 26148  1  0
 26149  1  0
 26150  1  0
 27151  1  0
 30152  1  1
 31153  1  0
 31154  1  0
 31155  1  0
 32156  1  0
 35157  1  1
 36158  1  0
 36159  1  0
 36160  1  0
 37161  1  0
 40162  1  6
 41163  1  0
 41164  1  0
 41165  1  0
 42166  1  0
 45167  1  6
 46168  1  0
 46169  1  0
 46170  1  0
 47171  1  0
 50172  1  1
 51173  1  0
 51174  1  0
 51175  1  0
 52176  1  0
 55177  1  6
 56178  1  0
 56179  1  0
 56180  1  0
 57181  1  0
 60182  1  1
 61183  1  0
 61184  1  0
 61185  1  0
 62186  1  0
 65187  1  1
 66188  1  0
 66189  1  0
 66190  1  0
 67191  1  0
 70192  1  6
 71193  1  0
 71194  1  0
 73195  1  0
 73196  1  0
 74197  1  0
 77198  1  1
 78199  1  0
 78200  1  0
 78201  1  0
 79202  1  0
 82203  1  6
 83204  1  0
 83205  1  0
 83206  1  0
 84207  1  0
 87208  1  1
 88209  1  0
 88210  1  0
 88211  1  0
 89212  1  0
 92213  1  1
 93214  1  0
 93215  1  0
 93216  1  0
 94217  1  0
 97218  1  1
 98219  1  0
 98220  1  0
 98221  1  0
 99222  1  0
102223  1  1
103224  1  0
103225  1  0
103226  1  0
104227  1  0
107228  1  6
108229  1  0
108230  1  0
108231  1  0
109232  1  0
112233  1  1
113234  1  0
113235  1  0
113236  1  0
114237  1  0
117238  1  1
118239  1  0
118240  1  0
118241  1  0
119242  1  0
122243  1  1
123244  1  0
123245  1  0
123246  1  0
124247  1  0
M  END
