
     RDKit          3D

257259  0  0  0  0  0  0  0  0999 V2000
    3.4182   -9.3284    0.7192 C   0  0  0  0  0  0  0  0  0  0  0  0
    3.6743   -8.1617   -0.1808 C   0  0  0  0  0  0  0  0  0  0  0  0
    3.2200   -8.1868   -1.3562 O   0  0  0  0  0  0  0  0  0  0  0  0
    4.4311   -7.0274    0.2871 N   0  0  0  0  0  0  0  0  0  0  0  0
    5.1277   -6.0899   -0.5981 C   0  0  2  0  0  0  0  0  0  0  0  0
    4.1249   -5.1397   -1.2952 C   0  0  0  0  0  0  0  0  0  0  0  0
    3.6877   -3.7228   -0.2114 S   0  0  0  0  0  0  0  0  0  0  0  0
    2.1804   -4.4299    0.5508 C   0  0  0  0  0  0  0  0  0  0  0  0
    0.9525   -3.7376    0.0115 C   0  0  0  0  0  0  0  0  0  0  0  0
    0.0215   -4.4624   -0.7542 C   0  0  0  0  0  0  0  0  0  0  0  0
   -1.1757   -3.8592   -1.1767 C   0  0  0  0  0  0  0  0  0  0  0  0
   -1.3870   -2.4992   -0.9040 C   0  0  0  0  0  0  0  0  0  0  0  0
   -0.4573   -1.7546   -0.1495 C   0  0  0  0  0  0  0  0  0  0  0  0
    0.7252   -2.3812    0.2861 C   0  0  0  0  0  0  0  0  0  0  0  0
   -0.6787   -0.2634    0.0112 C   0  0  0  0  0  0  0  0  0  0  0  0
   -0.0564    0.4213    1.5985 S   0  0  0  0  0  0  0  0  0  0  0  0
    1.3016    1.4424    0.9001 C   0  0  0  0  0  0  0  0  0  0  0  0
    0.9023    2.9289    0.7569 C   0  0  1  0  0  0  0  0  0  0  0  0
    2.0462    3.7744    0.3853 N   0  0  0  0  0  0  0  0  0  0  0  0
    2.7611    3.6230   -0.8514 C   0  0  0  0  0  0  0  0  0  0  0  0
    3.0539    2.4740   -1.2866 O   0  0  0  0  0  0  0  0  0  0  0  0
    3.1149    4.8244   -1.6948 C   0  0  1  0  0  0  0  0  0  0  0  0
    1.8529    5.3694   -2.3709 C   0  0  0  0  0  0  0  0  0  0  0  0
    3.7728    5.8688   -0.9019 N   0  0  0  0  0  0  0  0  0  0  0  0
    4.9082    5.6071   -0.0598 C   0  0  0  0  0  0  0  0  0  0  0  0
    5.4930    4.4949   -0.1038 O   0  0  0  0  0  0  0  0  0  0  0  0
    5.3526    6.6608    0.9196 C   0  0  1  0  0  0  0  0  0  0  0  0
    4.2359    6.9524    1.9229 C   0  0  0  0  0  0  0  0  0  0  0  0
    6.5416    6.2149    1.6530 N   0  0  0  0  0  0  0  0  0  0  0  0
    7.7509    6.9885    1.8188 C   0  0  0  0  0  0  0  0  0  0  0  0
    8.5607    6.6553    2.7281 O   0  0  0  0  0  0  0  0  0  0  0  0
    8.0720    8.1775    0.9488 C   0  0  1  0  0  0  0  0  0  0  0  0
    7.4487    9.4450    1.5469 C   0  0  0  0  0  0  0  0  0  0  0  0
    9.5240    8.3428    0.8021 N   0  0  0  0  0  0  0  0  0  0  0  0
   10.2802    7.6863   -0.2221 C   0  0  0  0  0  0  0  0  0  0  0  0
   11.2402    8.3031   -0.7616 O   0  0  0  0  0  0  0  0  0  0  0  0
    9.9823    6.2666   -0.6543 C   0  0  1  0  0  0  0  0  0  0  0  0
    9.3290    6.2619   -2.0316 C   0  0  0  0  0  0  0  0  0  0  0  0
   11.2230    5.4755   -0.6738 N   0  0  0  0  0  0  0  0  0  0  0  0
   11.2211    4.0367   -0.6140 C   0  0  0  0  0  0  0  0  0  0  0  0
   10.1349    3.4120   -0.4692 O   0  0  0  0  0  0  0  0  0  0  0  0
   12.5152    3.2577   -0.6711 C   0  0  1  0  0  0  0  0  0  0  0  0
   13.2972    3.5533   -1.9545 C   0  0  0  0  0  0  0  0  0  0  0  0
   13.3302    3.5749    0.5042 N   0  0  0  0  0  0  0  0  0  0  0  0
   13.4856    2.6883    1.6269 C   0  0  0  0  0  0  0  0  0  0  0  0
   13.6121    3.1900    2.7812 O   0  0  0  0  0  0  0  0  0  0  0  0
   13.5078    1.1824    1.4697 C   0  0  1  0  0  0  0  0  0  0  0  0
   14.4501    0.5342    2.4856 C   0  0  0  0  0  0  0  0  0  0  0  0
   12.1531    0.6448    1.6251 N   0  0  0  0  0  0  0  0  0  0  0  0
   11.5448   -0.2648    0.6897 C   0  0  0  0  0  0  0  0  0  0  0  0
   10.4538    0.0653    0.1440 O   0  0  0  0  0  0  0  0  0  0  0  0
   12.1489   -1.6181    0.3620 C   0  0  1  0  0  0  0  0  0  0  0  0
   13.3411   -1.4769   -0.5950 C   0  0  0  0  0  0  0  0  0  0  0  0
   12.5268   -2.3293    1.5904 N   0  0  0  0  0  0  0  0  0  0  0  0
   12.9320   -3.7170    1.6771 C   0  0  0  0  0  0  0  0  0  0  0  0
   13.3672   -4.1423    2.7847 O   0  0  0  0  0  0  0  0  0  0  0  0
   12.8912   -4.6664    0.4981 C   0  0  1  0  0  0  0  0  0  0  0  0
   14.3151   -4.9880    0.0314 C   0  0  0  0  0  0  0  0  0  0  0  0
   12.2141   -5.9194    0.8674 N   0  0  0  0  0  0  0  0  0  0  0  0
   11.6162   -6.8106   -0.0865 C   0  0  0  0  0  0  0  0  0  0  0  0
   11.5244   -8.0332    0.2002 O   0  0  0  0  0  0  0  0  0  0  0  0
   11.0504   -6.3115   -1.4018 C   0  0  1  0  0  0  0  0  0  0  0  0
   10.7111   -7.4085   -2.4142 C   0  0  0  0  0  0  0  0  0  0  0  0
    9.9085   -5.4035   -1.1828 N   0  0  0  0  0  0  0  0  0  0  0  0
    8.7297   -5.6529   -0.3848 C   0  0  0  0  0  0  0  0  0  0  0  0
    8.0851   -4.6636    0.0484 O   0  0  0  0  0  0  0  0  0  0  0  0
    8.1821   -7.0460   -0.1333 C   0  0  1  0  0  0  0  0  0  0  0  0
    7.5988   -7.2389    1.2699 C   0  0  0  0  0  0  0  0  0  0  0  0
    7.2585   -7.4588   -1.2029 N   0  0  0  0  0  0  0  0  0  0  0  0
    6.0084   -6.8422   -1.5747 C   0  0  0  0  0  0  0  0  0  0  0  0
    5.5877   -7.0423   -2.7567 O   0  0  0  0  0  0  0  0  0  0  0  0
   -0.2184    3.1623   -0.2462 C   0  0  0  0  0  0  0  0  0  0  0  0
   -0.1472    2.6082   -1.3685 O   0  0  0  0  0  0  0  0  0  0  0  0
   -1.2911    4.0996   -0.0139 N   0  0  0  0  0  0  0  0  0  0  0  0
   -1.3813    5.0182    1.1337 C   0  0  2  0  0  0  0  0  0  0  0  0
   -2.1001    4.3610    2.3169 C   0  0  0  0  0  0  0  0  0  0  0  0
   -2.0532    6.3281    0.7549 C   0  0  0  0  0  0  0  0  0  0  0  0
   -1.3325    7.3585    0.6484 O   0  0  0  0  0  0  0  0  0  0  0  0
   -3.4840    6.4737    0.6241 N   0  0  0  0  0  0  0  0  0  0  0  0
   -4.3435    5.5460   -0.1265 C   0  0  2  0  0  0  0  0  0  0  0  0
   -4.2880    5.9039   -1.6157 C   0  0  0  0  0  0  0  0  0  0  0  0
   -5.7373    5.5623    0.4511 C   0  0  0  0  0  0  0  0  0  0  0  0
   -5.8755    5.4054    1.6920 O   0  0  0  0  0  0  0  0  0  0  0  0
   -6.9207    5.6250   -0.3695 N   0  0  0  0  0  0  0  0  0  0  0  0
   -7.3912    6.8637   -1.0152 C   0  0  2  0  0  0  0  0  0  0  0  0
   -7.2558    8.0643   -0.0710 C   0  0  0  0  0  0  0  0  0  0  0  0
   -8.8283    6.7673   -1.4888 C   0  0  0  0  0  0  0  0  0  0  0  0
   -9.2102    7.5209   -2.4301 O   0  0  0  0  0  0  0  0  0  0  0  0
   -9.7969    5.9572   -0.8036 N   0  0  0  0  0  0  0  0  0  0  0  0
  -11.1146    6.4922   -0.4319 C   0  0  2  0  0  0  0  0  0  0  0  0
  -10.9558    7.6408    0.5723 C   0  0  0  0  0  0  0  0  0  0  0  0
  -11.9855    5.4133    0.1697 C   0  0  0  0  0  0  0  0  0  0  0  0
  -11.6212    4.8498    1.2338 O   0  0  0  0  0  0  0  0  0  0  0  0
  -13.2589    5.1115   -0.4081 N   0  0  0  0  0  0  0  0  0  0  0  0
  -14.3469    4.4589    0.3306 C   0  0  2  0  0  0  0  0  0  0  0  0
  -14.8471    5.3964    1.4350 C   0  0  0  0  0  0  0  0  0  0  0  0
  -13.9084    3.1082    0.8672 C   0  0  0  0  0  0  0  0  0  0  0  0
  -14.0088    2.8349    2.0932 O   0  0  0  0  0  0  0  0  0  0  0  0
  -13.2606    2.1548    0.0117 N   0  0  0  0  0  0  0  0  0  0  0  0
  -13.9429    1.3050   -0.9778 C   0  0  2  0  0  0  0  0  0  0  0  0
  -14.3570    2.1027   -2.2173 C   0  0  0  0  0  0  0  0  0  0  0  0
  -15.1324    0.5907   -0.3806 C   0  0  0  0  0  0  0  0  0  0  0  0
  -16.1203    1.2641    0.0135 O   0  0  0  0  0  0  0  0  0  0  0  0
  -15.2197   -0.8454   -0.3471 N   0  0  0  0  0  0  0  0  0  0  0  0
  -14.0705   -1.7409   -0.1879 C   0  0  2  0  0  0  0  0  0  0  0  0
  -13.6830   -2.3413   -1.5420 C   0  0  0  0  0  0  0  0  0  0  0  0
  -14.3793   -2.8563    0.7820 C   0  0  0  0  0  0  0  0  0  0  0  0
  -15.5714   -3.1213    1.0841 O   0  0  0  0  0  0  0  0  0  0  0  0
  -13.3083   -3.6302    1.3354 N   0  0  0  0  0  0  0  0  0  0  0  0
  -13.3155   -5.1076    1.3338 C   0  0  2  0  0  0  0  0  0  0  0  0
  -14.4701   -5.6641    2.1844 C   0  0  0  0  0  0  0  0  0  0  0  0
  -11.9988   -5.6189    1.8621 C   0  0  0  0  0  0  0  0  0  0  0  0
  -11.7407   -5.4860    3.0900 O   0  0  0  0  0  0  0  0  0  0  0  0
  -11.0359   -6.2830    1.0346 N   0  0  0  0  0  0  0  0  0  0  0  0
  -10.9193   -6.0982   -0.4166 C   0  0  2  0  0  0  0  0  0  0  0  0
  -11.4423   -7.3438   -1.1289 C   0  0  0  0  0  0  0  0  0  0  0  0
   -9.4900   -5.7851   -0.8387 C   0  0  0  0  0  0  0  0  0  0  0  0
   -9.2734   -5.5808   -2.0580 O   0  0  0  0  0  0  0  0  0  0  0  0
   -8.4042   -5.6703    0.1069 N   0  0  0  0  0  0  0  0  0  0  0  0
   -7.0183   -5.2930   -0.2207 C   0  0  2  0  0  0  0  0  0  0  0  0
   -6.9564   -3.9678   -1.0038 C   0  0  0  0  0  0  0  0  0  0  0  0
   -6.3126   -6.4013   -0.9649 C   0  0  0  0  0  0  0  0  0  0  0  0
   -6.8774   -6.9317   -1.9658 O   0  0  0  0  0  0  0  0  0  0  0  0
   -5.0023   -6.8649   -0.5990 N   0  0  0  0  0  0  0  0  0  0  0  0
   -4.0828   -6.1448    0.2943 C   0  0  1  0  0  0  0  0  0  0  0  0
   -4.3613   -6.4708    1.7415 C   0  0  0  0  0  0  0  0  0  0  0  0
   -5.0439   -7.6794    2.1188 N   0  0  0  0  0  0  0  0  0  0  0  0
   -3.8775   -5.7365    2.6415 O   0  0  0  0  0  0  0  0  0  0  0  0
   -2.6160   -6.5009   -0.0080 C   0  0  0  0  0  0  0  0  0  0  0  0
   -2.2056   -6.4321   -1.7980 S   0  0  0  0  0  0  0  0  0  0  0  0
   -2.1996   -4.6086   -2.0167 C   0  0  0  0  0  0  0  0  0  0  0  0
    2.3251   -9.5216    0.7847 H   0  0  0  0  0  0  0  0  0  0  0  0
    3.8199   -9.1389    1.7361 H   0  0  0  0  0  0  0  0  0  0  0  0
    3.9117  -10.2322    0.3066 H   0  0  0  0  0  0  0  0  0  0  0  0
    4.5826   -6.9347    1.3278 H   0  0  0  0  0  0  0  0  0  0  0  0
    5.7799   -5.4426    0.0041 H   0  0  0  0  0  0  0  0  0  0  0  0
    4.6127   -4.6931   -2.1900 H   0  0  0  0  0  0  0  0  0  0  0  0
    3.2161   -5.6634   -1.6655 H   0  0  0  0  0  0  0  0  0  0  0  0
    2.2181   -4.2690    1.6497 H   0  0  0  0  0  0  0  0  0  0  0  0
    2.1361   -5.5277    0.3890 H   0  0  0  0  0  0  0  0  0  0  0  0
    0.2372   -5.4906   -1.0187 H   0  0  0  0  0  0  0  0  0  0  0  0
   -2.2814   -2.0137   -1.2742 H   0  0  0  0  0  0  0  0  0  0  0  0
    1.4719   -1.8198    0.8403 H   0  0  0  0  0  0  0  0  0  0  0  0
   -0.2299    0.2312   -0.8689 H   0  0  0  0  0  0  0  0  0  0  0  0
   -1.7657   -0.0407   -0.0079 H   0  0  0  0  0  0  0  0  0  0  0  0
    1.6521    1.0027   -0.0513 H   0  0  0  0  0  0  0  0  0  0  0  0
    2.1546    1.3767    1.6078 H   0  0  0  0  0  0  0  0  0  0  0  0
    0.5633    3.2452    1.7644 H   0  0  0  0  0  0  0  0  0  0  0  0
    2.0924    4.7028    0.8552 H   0  0  0  0  0  0  0  0  0  0  0  0
    3.8198    4.5031   -2.4948 H   0  0  0  0  0  0  0  0  0  0  0  0
    2.1284    6.1789   -3.0810 H   0  0  0  0  0  0  0  0  0  0  0  0
    1.3499    4.5624   -2.9453 H   0  0  0  0  0  0  0  0  0  0  0  0
    1.1501    5.7709   -1.6135 H   0  0  0  0  0  0  0  0  0  0  0  0
    3.4110    6.8507   -0.9492 H   0  0  0  0  0  0  0  0  0  0  0  0
    5.5452    7.5858    0.3451 H   0  0  0  0  0  0  0  0  0  0  0  0
    3.8953    6.0101    2.4118 H   0  0  0  0  0  0  0  0  0  0  0  0
    3.3751    7.4325    1.4169 H   0  0  0  0  0  0  0  0  0  0  0  0
    4.6019    7.6484    2.7123 H   0  0  0  0  0  0  0  0  0  0  0  0
    6.4582    5.3480    2.2315 H   0  0  0  0  0  0  0  0  0  0  0  0
    7.6447    8.0289   -0.0690 H   0  0  0  0  0  0  0  0  0  0  0  0
    7.6557   10.3111    0.8881 H   0  0  0  0  0  0  0  0  0  0  0  0
    6.3459    9.3284    1.6399 H   0  0  0  0  0  0  0  0  0  0  0  0
    7.8751    9.6438    2.5537 H   0  0  0  0  0  0  0  0  0  0  0  0
    9.9863    9.1486    1.2845 H   0  0  0  0  0  0  0  0  0  0  0  0
    9.2853    5.7991    0.0693 H   0  0  0  0  0  0  0  0  0  0  0  0
    8.3447    6.7692   -1.9895 H   0  0  0  0  0  0  0  0  0  0  0  0
    9.1644    5.2154   -2.3740 H   0  0  0  0  0  0  0  0  0  0  0  0
    9.9739    6.7799   -2.7784 H   0  0  0  0  0  0  0  0  0  0  0  0
   12.1438    5.9567   -0.7768 H   0  0  0  0  0  0  0  0  0  0  0  0
   12.2663    2.1779   -0.6898 H   0  0  0  0  0  0  0  0  0  0  0  0
   13.6611    4.6084   -1.9669 H   0  0  0  0  0  0  0  0  0  0  0  0
   14.1808    2.8834   -2.0177 H   0  0  0  0  0  0  0  0  0  0  0  0
   12.6600    3.3838   -2.8504 H   0  0  0  0  0  0  0  0  0  0  0  0
   13.6282    4.5663    0.6312 H   0  0  0  0  0  0  0  0  0  0  0  0
   13.8919    0.9641    0.4513 H   0  0  0  0  0  0  0  0  0  0  0  0
   15.4585    0.9883    2.3999 H   0  0  0  0  0  0  0  0  0  0  0  0
   14.5418   -0.5526    2.2848 H   0  0  0  0  0  0  0  0  0  0  0  0
   14.0782    0.6709    3.5213 H   0  0  0  0  0  0  0  0  0  0  0  0
   11.5016    1.1374    2.2824 H   0  0  0  0  0  0  0  0  0  0  0  0
   11.3557   -2.2020   -0.1566 H   0  0  0  0  0  0  0  0  0  0  0  0
   14.2693   -1.2439   -0.0308 H   0  0  0  0  0  0  0  0  0  0  0  0
   13.5122   -2.4169   -1.1526 H   0  0  0  0  0  0  0  0  0  0  0  0
   13.1421   -0.6811   -1.3367 H   0  0  0  0  0  0  0  0  0  0  0  0
   12.4970   -1.8126    2.4994 H   0  0  0  0  0  0  0  0  0  0  0  0
   12.3495   -4.1914   -0.3324 H   0  0  0  0  0  0  0  0  0  0  0  0
   14.2740   -5.5102   -0.9479 H   0  0  0  0  0  0  0  0  0  0  0  0
   14.9111   -4.0576   -0.0956 H   0  0  0  0  0  0  0  0  0  0  0  0
   14.8270   -5.6489    0.7603 H   0  0  0  0  0  0  0  0  0  0  0  0
   12.4078   -6.3176    1.8150 H   0  0  0  0  0  0  0  0  0  0  0  0
   11.8539   -5.7177   -1.9007 H   0  0  0  0  0  0  0  0  0  0  0  0
   10.1149   -8.2326   -1.9725 H   0  0  0  0  0  0  0  0  0  0  0  0
   11.6468   -7.8624   -2.8010 H   0  0  0  0  0  0  0  0  0  0  0  0
   10.1520   -6.9832   -3.2735 H   0  0  0  0  0  0  0  0  0  0  0  0
   10.0495   -4.4157   -1.4804 H   0  0  0  0  0  0  0  0  0  0  0  0
    9.0339   -7.7490   -0.1497 H   0  0  0  0  0  0  0  0  0  0  0  0
    6.9665   -6.3882    1.5848 H   0  0  0  0  0  0  0  0  0  0  0  0
    8.4152   -7.3360    2.0164 H   0  0  0  0  0  0  0  0  0  0  0  0
    7.0019   -8.1715    1.3066 H   0  0  0  0  0  0  0  0  0  0  0  0
    7.6111   -8.2012   -1.8475 H   0  0  0  0  0  0  0  0  0  0  0  0
   -1.9284    4.2538   -0.8242 H   0  0  0  0  0  0  0  0  0  0  0  0
   -0.3542    5.2767    1.4671 H   0  0  0  0  0  0  0  0  0  0  0  0
   -3.1297    4.0552    2.0445 H   0  0  0  0  0  0  0  0  0  0  0  0
   -1.5439    3.4653    2.6514 H   0  0  0  0  0  0  0  0  0  0  0  0
   -2.1528    5.0794    3.1663 H   0  0  0  0  0  0  0  0  0  0  0  0
   -3.8584    7.4361    0.7736 H   0  0  0  0  0  0  0  0  0  0  0  0
   -3.9720    4.5151   -0.0109 H   0  0  0  0  0  0  0  0  0  0  0  0
   -4.5452    6.9731   -1.7704 H   0  0  0  0  0  0  0  0  0  0  0  0
   -3.2579    5.7582   -1.9999 H   0  0  0  0  0  0  0  0  0  0  0  0
   -4.9716    5.2546   -2.2036 H   0  0  0  0  0  0  0  0  0  0  0  0
   -7.5371    4.7900   -0.3180 H   0  0  0  0  0  0  0  0  0  0  0  0
   -6.7696    7.0600   -1.9157 H   0  0  0  0  0  0  0  0  0  0  0  0
   -7.6672    8.9769   -0.5498 H   0  0  0  0  0  0  0  0  0  0  0  0
   -7.7995    7.8746    0.8801 H   0  0  0  0  0  0  0  0  0  0  0  0
   -6.1876    8.2592    0.1534 H   0  0  0  0  0  0  0  0  0  0  0  0
   -9.6610    4.9188   -0.8045 H   0  0  0  0  0  0  0  0  0  0  0  0
  -11.6117    6.8983   -1.3376 H   0  0  0  0  0  0  0  0  0  0  0  0
  -10.3981    8.4780    0.1037 H   0  0  0  0  0  0  0  0  0  0  0  0
  -11.9570    8.0101    0.8940 H   0  0  0  0  0  0  0  0  0  0  0  0
  -10.4003    7.2905    1.4656 H   0  0  0  0  0  0  0  0  0  0  0  0
  -13.3669    5.2031   -1.4493 H   0  0  0  0  0  0  0  0  0  0  0  0
  -15.2037    4.2863   -0.3456 H   0  0  0  0  0  0  0  0  0  0  0  0
  -15.1443    6.3698    0.9925 H   0  0  0  0  0  0  0  0  0  0  0  0
  -15.7383    4.9610    1.9412 H   0  0  0  0  0  0  0  0  0  0  0  0
  -14.0494    5.5802    2.1912 H   0  0  0  0  0  0  0  0  0  0  0  0
  -12.2796    1.8949    0.2634 H   0  0  0  0  0  0  0  0  0  0  0  0
  -13.2007    0.5603   -1.3386 H   0  0  0  0  0  0  0  0  0  0  0  0
  -13.5011    2.6882   -2.6046 H   0  0  0  0  0  0  0  0  0  0  0  0
  -15.1988    2.7829   -2.0026 H   0  0  0  0  0  0  0  0  0  0  0  0
  -14.6867    1.4000   -3.0090 H   0  0  0  0  0  0  0  0  0  0  0  0
  -16.1706   -1.2618   -0.4695 H   0  0  0  0  0  0  0  0  0  0  0  0
  -13.1991   -1.1707    0.2165 H   0  0  0  0  0  0  0  0  0  0  0  0
  -14.4972   -2.9839   -1.9337 H   0  0  0  0  0  0  0  0  0  0  0  0
  -13.4910   -1.5361   -2.2806 H   0  0  0  0  0  0  0  0  0  0  0  0
  -12.7553   -2.9526   -1.4480 H   0  0  0  0  0  0  0  0  0  0  0  0
  -12.3880   -3.1506    1.4149 H   0  0  0  0  0  0  0  0  0  0  0  0
  -13.4824   -5.4525    0.2956 H   0  0  0  0  0  0  0  0  0  0  0  0
  -15.4465   -5.5135    1.6774 H   0  0  0  0  0  0  0  0  0  0  0  0
  -14.3473   -6.7652    2.3143 H   0  0  0  0  0  0  0  0  0  0  0  0
  -14.4936   -5.1927    3.1922 H   0  0  0  0  0  0  0  0  0  0  0  0
  -10.4502   -7.0224    1.4817 H   0  0  0  0  0  0  0  0  0  0  0  0
  -11.5317   -5.2285   -0.7351 H   0  0  0  0  0  0  0  0  0  0  0  0
  -11.3808   -7.2261   -2.2334 H   0  0  0  0  0  0  0  0  0  0  0  0
  -12.5051   -7.5068   -0.8509 H   0  0  0  0  0  0  0  0  0  0  0  0
  -10.8579   -8.2452   -0.8332 H   0  0  0  0  0  0  0  0  0  0  0  0
   -8.5936   -5.8481    1.1196 H   0  0  0  0  0  0  0  0  0  0  0  0
   -6.4962   -5.1050    0.7389 H   0  0  0  0  0  0  0  0  0  0  0  0
   -5.9135   -3.5837   -0.9979 H   0  0  0  0  0  0  0  0  0  0  0  0
   -7.6004   -3.2021   -0.5178 H   0  0  0  0  0  0  0  0  0  0  0  0
   -7.2649   -4.0951   -2.0588 H   0  0  0  0  0  0  0  0  0  0  0  0
   -4.6511   -7.7168   -1.0841 H   0  0  0  0  0  0  0  0  0  0  0  0
   -4.2105   -5.0529    0.1463 H   0  0  0  0  0  0  0  0  0  0  0  0
   -4.9823   -8.0010    3.1122 H   0  0  0  0  0  0  0  0  0  0  0  0
   -5.4262   -8.3312    1.4013 H   0  0  0  0  0  0  0  0  0  0  0  0
   -1.9390   -5.8334    0.5638 H   0  0  0  0  0  0  0  0  0  0  0  0
   -2.4191   -7.5470    0.3355 H   0  0  0  0  0  0  0  0  0  0  0  0
   -3.2207   -4.2215   -1.7978 H   0  0  0  0  0  0  0  0  0  0  0  0
   -1.9920   -4.3990   -3.0870 H   0  0  0  0  0  0  0  0  0  0  0  0
  1  2  1  0
  2  3  2  0
  2  4  1  0
  4  5  1  0
  5  6  1  0
  6  7  1  0
  7  8  1  0
  8  9  1  0
  9 10  2  0
 10 11  1  0
 11 12  2  0
 12 13  1  0
 13 14  2  0
 13 15  1  0
 15 16  1  0
 16 17  1  0
 17 18  1  0
 18 19  1  0
 19 20  1  0
 20 21  2  0
 20 22  1  0
 22 23  1  0
 22 24  1  0
 24 25  1  0
 25 26  2  0
 25 27  1  0
 27 28  1  0
 27 29  1  0
 29 30  1  0
 30 31  2  0
 30 32  1  0
 32 33  1  0
 32 34  1  0
 34 35  1  0
 35 36  2  0
 35 37  1  0
 37 38  1  0
 37 39  1  0
 39 40  1  0
 40 41  2  0
 40 42  1  0
 42 43  1  0
 42 44  1  0
 44 45  1  0
 45 46  2  0
 45 47  1  0
 47 48  1  0
 47 49  1  0
 49 50  1  0
 50 51  2  0
 50 52  1  0
 52 53  1  0
 52 54  1  0
 54 55  1  0
 55 56  2  0
 55 57  1  0
 57 58  1  0
 57 59  1  0
 59 60  1  0
 60 61  2  0
 60 62  1  0
 62 63  1  0
 62 64  1  0
 64 65  1  0
 65 66  2  0
 65 67  1  0
 67 68  1  0
 67 69  1  0
 69 70  1  0
 70 71  2  0
 18 72  1  0
 72 73  2  0
 72 74  1  0
 74 75  1  0
 75 76  1  0
 75 77  1  0
 77 78  2  0
 77 79  1  0
 79 80  1  0
 80 81  1  0
 80 82  1  0
 82 83  2  0
 82 84  1  0
 84 85  1  0
 85 86  1  0
 85 87  1  0
 87 88  2  0
 87 89  1  0
 89 90  1  0
 90 91  1  0
 90 92  1  0
 92 93  2  0
 92 94  1  0
 94 95  1  0
 95 96  1  0
 95 97  1  0
 97 98  2  0
 97 99  1  0
 99100  1  0
100101  1  0
100102  1  0
102103  2  0
102104  1  0
104105  1  0
105106  1  0
105107  1  0
107108  2  0
107109  1  0
109110  1  0
110111  1  0
110112  1  0
112113  2  0
112114  1  0
114115  1  0
115116  1  0
115117  1  0
117118  2  0
117119  1  0
119120  1  0
120121  1  0
120122  1  0
122123  2  0
122124  1  0
124125  1  0
125126  1  0
126127  1  0
126128  2  0
125129  1  0
129130  1  0
130131  1  0
 70  5  1  0
 14  9  1  0
131 11  1  0
  1132  1  0
  1133  1  0
  1134  1  0
  4135  1  0
  5136  1  1
  6137  1  0
  6138  1  0
  8139  1  0
  8140  1  0
 10141  1  0
 12142  1  0
 14143  1  0
 15144  1  0
 15145  1  0
 17146  1  0
 17147  1  0
 18148  1  1
 19149  1  0
 22150  1  6
 23151  1  0
 23152  1  0
 23153  1  0
 24154  1  0
 27155  1  6
 28156  1  0
 28157  1  0
 28158  1  0
 29159  1  0
 32160  1  6
 33161  1  0
 33162  1  0
 33163  1  0
 34164  1  0
 37165  1  1
 38166  1  0
 38167  1  0
 38168  1  0
 39169  1  0
 42170  1  1
 43171  1  0
 43172  1  0
 43173  1  0
 44174  1  0
 47175  1  6
 48176  1  0
 48177  1  0
 48178  1  0
 49179  1  0
 52180  1  6
 53181  1  0
 53182  1  0
 53183  1  0
 54184  1  0
 57185  1  6
 58186  1  0
 58187  1  0
 58188  1  0
 59189  1  0
 62190  1  6
 63191  1  0
 63192  1  0
 63193  1  0
 64194  1  0
 67195  1  1
 68196  1  0
 68197  1  0
 68198  1  0
 69199  1  0
 74200  1  0
 75201  1  1
 76202  1  0
 76203  1  0
 76204  1  0
 79205  1  0
 80206  1  6
 81207  1  0
 81208  1  0
 81209  1  0
 84210  1  0
 85211  1  6
 86212  1  0
 86213  1  0
 86214  1  0
 89215  1  0
 90216  1  6
 91217  1  0
 91218  1  0
 91219  1  0
 94220  1  0
 95221  1  6
 96222  1  0
 96223  1  0
 96224  1  0
 99225  1  0
100226  1  6
101227  1  0
101228  1  0
101229  1  0
104230  1  0
105231  1  1
106232  1  0
106233  1  0
106234  1  0
109235  1  0
110236  1  6
111237  1  0
111238  1  0
111239  1  0
114240  1  0
115241  1  6
116242  1  0
116243  1  0
116244  1  0
119245  1  0
120246  1  1
121247  1  0
121248  1  0
121249  1  0
124250  1  0
125251  1  1
127252  1  0
127253  1  0
129254  1  0
129255  1  0
131256  1  0
131257  1  0
M  END
