
     RDKit          3D

247249  0  0  0  0  0  0  0  0999 V2000
   -1.9731   -7.6802    2.5018 C   0  0  0  0  0  0  0  0  0  0  0  0
   -2.5449   -7.1655    1.2232 C   0  0  0  0  0  0  0  0  0  0  0  0
   -2.9687   -7.9889    0.3688 O   0  0  0  0  0  0  0  0  0  0  0  0
   -2.6662   -5.7476    0.9990 N   0  0  0  0  0  0  0  0  0  0  0  0
   -3.3417   -5.1478   -0.1669 C   0  0  1  0  0  0  0  0  0  0  0  0
   -2.6322   -5.5365   -1.4810 C   0  0  0  0  0  0  0  0  0  0  0  0
   -0.8085   -5.3317   -1.3572 S   0  0  0  0  0  0  0  0  0  0  0  0
   -0.7543   -3.5423   -1.7588 C   0  0  0  0  0  0  0  0  0  0  0  0
    0.4043   -2.8795   -1.0541 C   0  0  0  0  0  0  0  0  0  0  0  0
    1.7233   -3.2908   -1.3203 C   0  0  0  0  0  0  0  0  0  0  0  0
    2.8114   -2.6506   -0.6952 C   0  0  0  0  0  0  0  0  0  0  0  0
    2.5701   -1.6169    0.2269 C   0  0  0  0  0  0  0  0  0  0  0  0
    1.2532   -1.2135    0.5142 C   0  0  0  0  0  0  0  0  0  0  0  0
    0.1772   -1.8469   -0.1302 C   0  0  0  0  0  0  0  0  0  0  0  0
    0.9989   -0.1874    1.5915 C   0  0  0  0  0  0  0  0  0  0  0  0
   -0.1714    1.1101    1.0468 S   0  0  0  0  0  0  0  0  0  0  0  0
    1.0325    2.0708    0.0585 C   0  0  0  0  0  0  0  0  0  0  0  0
    0.3849    3.3716   -0.4408 C   0  0  1  0  0  0  0  0  0  0  0  0
   -0.0460    4.2052    0.6861 N   0  0  0  0  0  0  0  0  0  0  0  0
   -1.2296    5.0151    0.6638 C   0  0  0  0  0  0  0  0  0  0  0  0
   -1.9586    5.0590    1.6937 O   0  0  0  0  0  0  0  0  0  0  0  0
   -1.6002    5.8632   -0.5225 C   0  0  1  0  0  0  0  0  0  0  0  0
   -2.8963    5.3545   -1.1678 C   0  0  0  0  0  0  0  0  0  0  0  0
   -1.6706    7.2692   -0.0909 N   0  0  0  0  0  0  0  0  0  0  0  0
   -2.7544    8.1565   -0.3635 C   0  0  0  0  0  0  0  0  0  0  0  0
   -2.6183    9.0154   -1.2778 O   0  0  0  0  0  0  0  0  0  0  0  0
   -3.9460    8.1980    0.5569 C   0  0  1  0  0  0  0  0  0  0  0  0
   -3.5870    8.9142    1.8617 C   0  0  0  0  0  0  0  0  0  0  0  0
   -5.0665    8.8952   -0.0918 N   0  0  0  0  0  0  0  0  0  0  0  0
   -6.3065    8.2954   -0.5248 C   0  0  0  0  0  0  0  0  0  0  0  0
   -6.9580    8.8820   -1.4290 O   0  0  0  0  0  0  0  0  0  0  0  0
   -6.9348    7.1076    0.1798 C   0  0  1  0  0  0  0  0  0  0  0  0
   -7.7810    7.5750    1.3641 C   0  0  0  0  0  0  0  0  0  0  0  0
   -7.7055    6.2764   -0.7582 N   0  0  0  0  0  0  0  0  0  0  0  0
   -8.8901    6.7057   -1.4435 C   0  0  0  0  0  0  0  0  0  0  0  0
   -8.8210    6.9734   -2.6730 O   0  0  0  0  0  0  0  0  0  0  0  0
  -10.2302    6.6840   -0.7626 C   0  0  1  0  0  0  0  0  0  0  0  0
  -10.9725    8.0089   -0.9548 C   0  0  0  0  0  0  0  0  0  0  0  0
  -11.0358    5.5837   -1.3000 N   0  0  0  0  0  0  0  0  0  0  0  0
  -10.9642    4.2787   -0.7206 C   0  0  0  0  0  0  0  0  0  0  0  0
  -10.0979    3.4669   -1.1379 O   0  0  0  0  0  0  0  0  0  0  0  0
  -11.9829    3.8265    0.2868 C   0  0  1  0  0  0  0  0  0  0  0  0
  -12.1843    4.8587    1.3972 C   0  0  0  0  0  0  0  0  0  0  0  0
  -13.2602    3.5769   -0.3856 N   0  0  0  0  0  0  0  0  0  0  0  0
  -13.9384    2.3066   -0.4558 C   0  0  0  0  0  0  0  0  0  0  0  0
  -15.1487    2.2862   -0.8130 O   0  0  0  0  0  0  0  0  0  0  0  0
  -13.2664    1.0044   -0.0896 C   0  0  1  0  0  0  0  0  0  0  0  0
  -13.4469    0.7356    1.4140 C   0  0  0  0  0  0  0  0  0  0  0  0
  -13.7931   -0.0856   -0.9266 N   0  0  0  0  0  0  0  0  0  0  0  0
  -14.3134   -1.3275   -0.4279 C   0  0  0  0  0  0  0  0  0  0  0  0
  -15.5658   -1.4642   -0.3441 O   0  0  0  0  0  0  0  0  0  0  0  0
  -13.3990   -2.4560    0.0191 C   0  0  1  0  0  0  0  0  0  0  0  0
  -13.9375   -3.8043   -0.4814 C   0  0  0  0  0  0  0  0  0  0  0  0
  -12.0218   -2.2493   -0.4550 N   0  0  0  0  0  0  0  0  0  0  0  0
  -10.9900   -3.2106   -0.2038 C   0  0  0  0  0  0  0  0  0  0  0  0
  -10.3454   -3.1477    0.8760 O   0  0  0  0  0  0  0  0  0  0  0  0
  -10.5950   -4.1869   -1.2790 C   0  0  1  0  0  0  0  0  0  0  0  0
   -9.1247   -4.0172   -1.6802 C   0  0  0  0  0  0  0  0  0  0  0  0
  -10.8741   -5.5790   -0.9055 N   0  0  0  0  0  0  0  0  0  0  0  0
  -10.1734   -6.2748    0.1399 C   0  0  0  0  0  0  0  0  0  0  0  0
  -10.0532   -5.7510    1.2785 O   0  0  0  0  0  0  0  0  0  0  0  0
   -9.5479   -7.6229   -0.1107 C   0  0  1  0  0  0  0  0  0  0  0  0
  -10.5448   -8.6358   -0.6884 C   0  0  0  0  0  0  0  0  0  0  0  0
   -8.3928   -7.4767   -1.0107 N   0  0  0  0  0  0  0  0  0  0  0  0
   -7.0253   -7.4947   -0.5640 C   0  0  0  0  0  0  0  0  0  0  0  0
   -6.1385   -7.9163   -1.3513 O   0  0  0  0  0  0  0  0  0  0  0  0
   -6.6370   -7.0687    0.8397 C   0  0  1  0  0  0  0  0  0  0  0  0
   -6.4164   -8.3166    1.7008 C   0  0  0  0  0  0  0  0  0  0  0  0
   -5.4166   -6.2409    0.8938 N   0  0  0  0  0  0  0  0  0  0  0  0
   -4.8206   -5.5074   -0.1921 C   0  0  0  0  0  0  0  0  0  0  0  0
   -5.5283   -5.1261   -1.1643 O   0  0  0  0  0  0  0  0  0  0  0  0
    1.3433    4.1121   -1.3515 C   0  0  0  0  0  0  0  0  0  0  0  0
    1.0361    4.2419   -2.5709 O   0  0  0  0  0  0  0  0  0  0  0  0
    2.6337    4.5604   -0.9140 N   0  0  0  0  0  0  0  0  0  0  0  0
    2.8043    5.5283    0.1699 C   0  0  2  0  0  0  0  0  0  0  0  0
    2.3478    6.9103   -0.3038 C   0  0  0  0  0  0  0  0  0  0  0  0
    4.2277    5.4896    0.6888 C   0  0  0  0  0  0  0  0  0  0  0  0
    4.7154    4.3738    1.0173 O   0  0  0  0  0  0  0  0  0  0  0  0
    4.9916    6.6746    0.9655 N   0  0  0  0  0  0  0  0  0  0  0  0
    5.5525    7.5423   -0.0847 C   0  0  2  0  0  0  0  0  0  0  0  0
    6.2150    6.7164   -1.1970 C   0  0  0  0  0  0  0  0  0  0  0  0
    6.5077    8.5652    0.4821 C   0  0  0  0  0  0  0  0  0  0  0  0
    6.5785    9.6978   -0.0695 O   0  0  0  0  0  0  0  0  0  0  0  0
    7.2997    8.3252    1.6543 N   0  0  0  0  0  0  0  0  0  0  0  0
    8.2096    7.1847    1.7705 C   0  0  2  0  0  0  0  0  0  0  0  0
    8.3472    6.7835    3.2408 C   0  0  0  0  0  0  0  0  0  0  0  0
    9.5545    7.5213    1.1729 C   0  0  0  0  0  0  0  0  0  0  0  0
    9.7646    8.6530    0.6583 O   0  0  0  0  0  0  0  0  0  0  0  0
   10.6085    6.5587    1.2003 N   0  0  0  0  0  0  0  0  0  0  0  0
   11.0461    5.7716    0.0449 C   0  0  2  0  0  0  0  0  0  0  0  0
   10.3560    6.1844   -1.2677 C   0  0  0  0  0  0  0  0  0  0  0  0
   10.8181    4.3171    0.3308 C   0  0  0  0  0  0  0  0  0  0  0  0
    9.6479    3.8435    0.3097 O   0  0  0  0  0  0  0  0  0  0  0  0
   11.9203    3.4915    0.7253 N   0  0  0  0  0  0  0  0  0  0  0  0
   12.3860    2.3381   -0.0547 C   0  0  2  0  0  0  0  0  0  0  0  0
   12.7836    2.7710   -1.4678 C   0  0  0  0  0  0  0  0  0  0  0  0
   11.3649    1.2225   -0.0799 C   0  0  0  0  0  0  0  0  0  0  0  0
   10.2751    1.3798   -0.6928 O   0  0  0  0  0  0  0  0  0  0  0  0
   11.6039   -0.0198    0.5979 N   0  0  0  0  0  0  0  0  0  0  0  0
   12.4807   -1.0855    0.0913 C   0  0  2  0  0  0  0  0  0  0  0  0
   13.9420   -0.6399    0.0351 C   0  0  0  0  0  0  0  0  0  0  0  0
   12.0115   -1.5961   -1.2548 C   0  0  0  0  0  0  0  0  0  0  0  0
   11.7621   -0.7741   -2.1792 O   0  0  0  0  0  0  0  0  0  0  0  0
   11.8485   -2.9996   -1.5243 N   0  0  0  0  0  0  0  0  0  0  0  0
   12.6816   -4.0384   -0.9152 C   0  0  2  0  0  0  0  0  0  0  0  0
   13.3033   -4.9229   -1.9983 C   0  0  0  0  0  0  0  0  0  0  0  0
   11.8620   -4.8462    0.0581 C   0  0  0  0  0  0  0  0  0  0  0  0
   12.0441   -4.6742    1.2960 O   0  0  0  0  0  0  0  0  0  0  0  0
   10.8778   -5.7936   -0.3965 N   0  0  0  0  0  0  0  0  0  0  0  0
   10.3039   -6.8022    0.5051 C   0  0  2  0  0  0  0  0  0  0  0  0
   11.4070   -7.7518    1.0006 C   0  0  0  0  0  0  0  0  0  0  0  0
    9.2386   -7.6336   -0.1847 C   0  0  0  0  0  0  0  0  0  0  0  0
    9.3981   -7.9450   -1.3984 O   0  0  0  0  0  0  0  0  0  0  0  0
    8.1208   -8.2043    0.5279 N   0  0  0  0  0  0  0  0  0  0  0  0
    7.5257   -7.6391    1.7494 C   0  0  2  0  0  0  0  0  0  0  0  0
    8.3255   -8.0950    2.9834 C   0  0  0  0  0  0  0  0  0  0  0  0
    6.0702   -8.0614    1.8773 C   0  0  0  0  0  0  0  0  0  0  0  0
    5.7545   -9.0159    2.6415 O   0  0  0  0  0  0  0  0  0  0  0  0
    5.0256   -7.3873    1.1538 N   0  0  0  0  0  0  0  0  0  0  0  0
    5.1417   -7.0223   -0.2587 C   0  0  1  0  0  0  0  0  0  0  0  0
    4.7923   -8.2142   -1.1117 C   0  0  0  0  0  0  0  0  0  0  0  0
    5.7198   -8.7171   -2.0732 N   0  0  0  0  0  0  0  0  0  0  0  0
    3.6726   -8.7782   -0.9743 O   0  0  0  0  0  0  0  0  0  0  0  0
    4.2165   -5.8395   -0.5945 C   0  0  0  0  0  0  0  0  0  0  0  0
    4.7609   -4.3302    0.2922 S   0  0  0  0  0  0  0  0  0  0  0  0
    4.2189   -3.1072   -0.9682 C   0  0  0  0  0  0  0  0  0  0  0  0
   -1.1148   -8.3452    2.2905 H   0  0  0  0  0  0  0  0  0  0  0  0
   -1.6391   -6.8441    3.1495 H   0  0  0  0  0  0  0  0  0  0  0  0
   -2.7557   -8.2547    3.0427 H   0  0  0  0  0  0  0  0  0  0  0  0
   -2.1991   -5.0924    1.6646 H   0  0  0  0  0  0  0  0  0  0  0  0
   -3.2832   -4.0400   -0.0633 H   0  0  0  0  0  0  0  0  0  0  0  0
   -3.0234   -4.9257   -2.3219 H   0  0  0  0  0  0  0  0  0  0  0  0
   -2.8356   -6.5966   -1.7323 H   0  0  0  0  0  0  0  0  0  0  0  0
   -1.7048   -3.0450   -1.4831 H   0  0  0  0  0  0  0  0  0  0  0  0
   -0.6288   -3.4189   -2.8539 H   0  0  0  0  0  0  0  0  0  0  0  0
    1.9109   -4.1128   -2.0103 H   0  0  0  0  0  0  0  0  0  0  0  0
    3.4097   -1.1574    0.7348 H   0  0  0  0  0  0  0  0  0  0  0  0
   -0.8400   -1.5460    0.0989 H   0  0  0  0  0  0  0  0  0  0  0  0
    1.9442    0.2761    1.9483 H   0  0  0  0  0  0  0  0  0  0  0  0
    0.5471   -0.7149    2.4586 H   0  0  0  0  0  0  0  0  0  0  0  0
    1.3584    1.4599   -0.8124 H   0  0  0  0  0  0  0  0  0  0  0  0
    1.9218    2.3053    0.6848 H   0  0  0  0  0  0  0  0  0  0  0  0
   -0.5133    3.0852   -1.0372 H   0  0  0  0  0  0  0  0  0  0  0  0
    0.3368    3.9855    1.6370 H   0  0  0  0  0  0  0  0  0  0  0  0
   -0.8008    5.7922   -1.2858 H   0  0  0  0  0  0  0  0  0  0  0  0
   -3.1876    6.0132   -2.0141 H   0  0  0  0  0  0  0  0  0  0  0  0
   -3.7259    5.3154   -0.4313 H   0  0  0  0  0  0  0  0  0  0  0  0
   -2.7397    4.3342   -1.5754 H   0  0  0  0  0  0  0  0  0  0  0  0
   -0.8079    7.7023    0.3091 H   0  0  0  0  0  0  0  0  0  0  0  0
   -4.2080    7.1631    0.8155 H   0  0  0  0  0  0  0  0  0  0  0  0
   -4.4813    8.9643    2.5168 H   0  0  0  0  0  0  0  0  0  0  0  0
   -3.2232    9.9462    1.6558 H   0  0  0  0  0  0  0  0  0  0  0  0
   -2.7969    8.3470    2.3981 H   0  0  0  0  0  0  0  0  0  0  0  0
   -4.9088    9.8951   -0.3644 H   0  0  0  0  0  0  0  0  0  0  0  0
   -6.1526    6.4486    0.5965 H   0  0  0  0  0  0  0  0  0  0  0  0
   -7.1357    8.0956    2.1068 H   0  0  0  0  0  0  0  0  0  0  0  0
   -8.2521    6.7037    1.8623 H   0  0  0  0  0  0  0  0  0  0  0  0
   -8.5668    8.2858    1.0376 H   0  0  0  0  0  0  0  0  0  0  0  0
   -7.2104    5.4519   -1.1694 H   0  0  0  0  0  0  0  0  0  0  0  0
  -10.0919    6.5325    0.3263 H   0  0  0  0  0  0  0  0  0  0  0  0
  -11.2130    8.1791   -2.0268 H   0  0  0  0  0  0  0  0  0  0  0  0
  -11.9224    7.9957   -0.3785 H   0  0  0  0  0  0  0  0  0  0  0  0
  -10.3561    8.8565   -0.5908 H   0  0  0  0  0  0  0  0  0  0  0  0
  -11.3584    5.6466   -2.2929 H   0  0  0  0  0  0  0  0  0  0  0  0
  -11.6032    2.9102    0.7743 H   0  0  0  0  0  0  0  0  0  0  0  0
  -12.5744    5.8134    0.9829 H   0  0  0  0  0  0  0  0  0  0  0  0
  -11.2268    5.0469    1.9233 H   0  0  0  0  0  0  0  0  0  0  0  0
  -12.9193    4.4674    2.1394 H   0  0  0  0  0  0  0  0  0  0  0  0
  -13.7527    4.3984   -0.8118 H   0  0  0  0  0  0  0  0  0  0  0  0
  -12.1822    1.0801   -0.3044 H   0  0  0  0  0  0  0  0  0  0  0  0
  -14.5216    0.5569    1.6531 H   0  0  0  0  0  0  0  0  0  0  0  0
  -12.8524   -0.1496    1.7190 H   0  0  0  0  0  0  0  0  0  0  0  0
  -13.0998    1.5957    2.0194 H   0  0  0  0  0  0  0  0  0  0  0  0
  -13.8172    0.0560   -1.9603 H   0  0  0  0  0  0  0  0  0  0  0  0
  -13.3909   -2.4715    1.1297 H   0  0  0  0  0  0  0  0  0  0  0  0
  -13.8962   -3.8535   -1.5887 H   0  0  0  0  0  0  0  0  0  0  0  0
  -14.9877   -3.9554   -0.1451 H   0  0  0  0  0  0  0  0  0  0  0  0
  -13.3428   -4.6409   -0.0554 H   0  0  0  0  0  0  0  0  0  0  0  0
  -11.6629   -1.2762   -0.5629 H   0  0  0  0  0  0  0  0  0  0  0  0
  -11.2012   -3.9528   -2.1861 H   0  0  0  0  0  0  0  0  0  0  0  0
   -8.8759   -4.7211   -2.5024 H   0  0  0  0  0  0  0  0  0  0  0  0
   -8.9445   -2.9805   -2.0355 H   0  0  0  0  0  0  0  0  0  0  0  0
   -8.4551   -4.2288   -0.8162 H   0  0  0  0  0  0  0  0  0  0  0  0
  -11.4463   -6.1417   -1.5779 H   0  0  0  0  0  0  0  0  0  0  0  0
   -9.2188   -8.0344    0.8622 H   0  0  0  0  0  0  0  0  0  0  0  0
  -10.8452   -8.3668   -1.7238 H   0  0  0  0  0  0  0  0  0  0  0  0
  -10.0768   -9.6463   -0.7064 H   0  0  0  0  0  0  0  0  0  0  0  0
  -11.4523   -8.6912   -0.0434 H   0  0  0  0  0  0  0  0  0  0  0  0
   -8.5696   -7.4503   -2.0395 H   0  0  0  0  0  0  0  0  0  0  0  0
   -7.4567   -6.4789    1.2909 H   0  0  0  0  0  0  0  0  0  0  0  0
   -7.3321   -8.9425    1.7547 H   0  0  0  0  0  0  0  0  0  0  0  0
   -6.1429   -8.0203    2.7362 H   0  0  0  0  0  0  0  0  0  0  0  0
   -5.5881   -8.9330    1.2846 H   0  0  0  0  0  0  0  0  0  0  0  0
   -5.0328   -6.0617    1.8493 H   0  0  0  0  0  0  0  0  0  0  0  0
    3.3955    4.5207   -1.6264 H   0  0  0  0  0  0  0  0  0  0  0  0
    2.1714    5.2410    1.0308 H   0  0  0  0  0  0  0  0  0  0  0  0
    1.2585    6.8805   -0.5204 H   0  0  0  0  0  0  0  0  0  0  0  0
    2.8477    7.1807   -1.2561 H   0  0  0  0  0  0  0  0  0  0  0  0
    2.5249    7.6838    0.4722 H   0  0  0  0  0  0  0  0  0  0  0  0
    5.2991    6.7951    1.9549 H   0  0  0  0  0  0  0  0  0  0  0  0
    4.7287    8.1221   -0.5481 H   0  0  0  0  0  0  0  0  0  0  0  0
    6.8223    7.3666   -1.8619 H   0  0  0  0  0  0  0  0  0  0  0  0
    5.4298    6.2341   -1.8198 H   0  0  0  0  0  0  0  0  0  0  0  0
    6.8596    5.9160   -0.7818 H   0  0  0  0  0  0  0  0  0  0  0  0
    7.5050    9.1548    2.2569 H   0  0  0  0  0  0  0  0  0  0  0  0
    7.7964    6.3084    1.2277 H   0  0  0  0  0  0  0  0  0  0  0  0
    7.3459    6.5595    3.6663 H   0  0  0  0  0  0  0  0  0  0  0  0
    8.9677    5.8639    3.3383 H   0  0  0  0  0  0  0  0  0  0  0  0
    8.8144    7.6051    3.8282 H   0  0  0  0  0  0  0  0  0  0  0  0
   11.0660    6.3650    2.1251 H   0  0  0  0  0  0  0  0  0  0  0  0
   12.1347    5.9440   -0.0859 H   0  0  0  0  0  0  0  0  0  0  0  0
    9.2560    6.0244   -1.2053 H   0  0  0  0  0  0  0  0  0  0  0  0
   10.7532    5.5789   -2.1139 H   0  0  0  0  0  0  0  0  0  0  0  0
   10.5566    7.2524   -1.4902 H   0  0  0  0  0  0  0  0  0  0  0  0
   12.6015    3.9141    1.3918 H   0  0  0  0  0  0  0  0  0  0  0  0
   13.3053    1.9668    0.4457 H   0  0  0  0  0  0  0  0  0  0  0  0
   11.9023    3.1752   -2.0129 H   0  0  0  0  0  0  0  0  0  0  0  0
   13.1926    1.9138   -2.0402 H   0  0  0  0  0  0  0  0  0  0  0  0
   13.5587    3.5629   -1.4118 H   0  0  0  0  0  0  0  0  0  0  0  0
   10.9194   -0.2801    1.3426 H   0  0  0  0  0  0  0  0  0  0  0  0
   12.4297   -1.9195    0.8210 H   0  0  0  0  0  0  0  0  0  0  0  0
   14.2453   -0.2106    1.0144 H   0  0  0  0  0  0  0  0  0  0  0  0
   14.1018    0.1167   -0.7646 H   0  0  0  0  0  0  0  0  0  0  0  0
   14.6089   -1.5021   -0.1859 H   0  0  0  0  0  0  0  0  0  0  0  0
   11.1844   -3.2745   -2.2825 H   0  0  0  0  0  0  0  0  0  0  0  0
   13.5244   -3.5784   -0.3671 H   0  0  0  0  0  0  0  0  0  0  0  0
   12.5228   -5.4232   -2.6162 H   0  0  0  0  0  0  0  0  0  0  0  0
   13.9327   -4.2985   -2.6730 H   0  0  0  0  0  0  0  0  0  0  0  0
   13.9452   -5.7011   -1.5321 H   0  0  0  0  0  0  0  0  0  0  0  0
   10.5659   -5.7432   -1.3897 H   0  0  0  0  0  0  0  0  0  0  0  0
    9.8650   -6.2690    1.3625 H   0  0  0  0  0  0  0  0  0  0  0  0
   10.9757   -8.6015    1.5710 H   0  0  0  0  0  0  0  0  0  0  0  0
   11.9814   -8.1599    0.1419 H   0  0  0  0  0  0  0  0  0  0  0  0
   12.1074   -7.2202    1.6758 H   0  0  0  0  0  0  0  0  0  0  0  0
    7.6164   -8.9906    0.0494 H   0  0  0  0  0  0  0  0  0  0  0  0
    7.5389   -6.5263    1.6979 H   0  0  0  0  0  0  0  0  0  0  0  0
    8.4493   -9.2007    2.9864 H   0  0  0  0  0  0  0  0  0  0  0  0
    9.3231   -7.6299    3.0229 H   0  0  0  0  0  0  0  0  0  0  0  0
    7.7933   -7.7970    3.9123 H   0  0  0  0  0  0  0  0  0  0  0  0
    4.0607   -7.4842    1.5484 H   0  0  0  0  0  0  0  0  0  0  0  0
    6.1803   -6.7020   -0.4859 H   0  0  0  0  0  0  0  0  0  0  0  0
    6.6468   -8.2621   -2.2122 H   0  0  0  0  0  0  0  0  0  0  0  0
    5.4843   -9.5548   -2.6539 H   0  0  0  0  0  0  0  0  0  0  0  0
    3.1688   -6.0640   -0.2963 H   0  0  0  0  0  0  0  0  0  0  0  0
    4.2380   -5.6879   -1.6965 H   0  0  0  0  0  0  0  0  0  0  0  0
    4.3169   -3.5050   -2.0011 H   0  0  0  0  0  0  0  0  0  0  0  0
    4.9098   -2.2434   -0.9208 H   0  0  0  0  0  0  0  0  0  0  0  0
  1  2  1  0
  2  3  2  0
  2  4  1  0
  4  5  1  0
  5  6  1  0
  6  7  1  0
  7  8  1  0
  8  9  1  0
  9 10  2  0
 10 11  1  0
 11 12  2  0
 12 13  1  0
 13 14  2  0
 13 15  1  0
 15 16  1  0
 16 17  1  0
 17 18  1  0
 18 19  1  0
 19 20  1  0
 20 21  2  0
 20 22  1  0
 22 23  1  0
 22 24  1  0
 24 25  1  0
 25 26  2  0
 25 27  1  0
 27 28  1  0
 27 29  1  0
 29 30  1  0
 30 31  2  0
 30 32  1  0
 32 33  1  0
 32 34  1  0
 34 35  1  0
 35 36  2  0
 35 37  1  0
 37 38  1  0
 37 39  1  0
 39 40  1  0
 40 41  2  0
 40 42  1  0
 42 43  1  0
 42 44  1  0
 44 45  1  0
 45 46  2  0
 45 47  1  0
 47 48  1  0
 47 49  1  0
 49 50  1  0
 50 51  2  0
 50 52  1  0
 52 53  1  0
 52 54  1  0
 54 55  1  0
 55 56  2  0
 55 57  1  0
 57 58  1  0
 57 59  1  0
 59 60  1  0
 60 61  2  0
 60 62  1  0
 62 63  1  0
 62 64  1  0
 64 65  1  0
 65 66  2  0
 65 67  1  0
 67 68  1  0
 67 69  1  0
 69 70  1  0
 70 71  2  0
 18 72  1  0
 72 73  2  0
 72 74  1  0
 74 75  1  0
 75 76  1  0
 75 77  1  0
 77 78  2  0
 77 79  1  0
 79 80  1  0
 80 81  1  0
 80 82  1  0
 82 83  2  0
 82 84  1  0
 84 85  1  0
 85 86  1  0
 85 87  1  0
 87 88  2  0
 87 89  1  0
 89 90  1  0
 90 91  1  0
 90 92  1  0
 92 93  2  0
 92 94  1  0
 94 95  1  0
 95 96  1  0
 95 97  1  0
 97 98  2  0
 97 99  1  0
 99100  1  0
100101  1  0
100102  1  0
102103  2  0
102104  1  0
104105  1  0
105106  1  0
105107  1  0
107108  2  0
107109  1  0
109110  1  0
110111  1  0
110112  1  0
112113  2  0
112114  1  0
114115  1  0
115116  1  0
115117  1  0
117118  2  0
117119  1  0
119120  1  0
120121  1  0
121122  1  0
121123  2  0
120124  1  0
124125  1  0
125126  1  0
 70  5  1  0
 14  9  1  0
126 11  1  0
  1127  1  0
  1128  1  0
  1129  1  0
  4130  1  0
  5131  1  1
  6132  1  0
  6133  1  0
  8134  1  0
  8135  1  0
 10136  1  0
 12137  1  0
 14138  1  0
 15139  1  0
 15140  1  0
 17141  1  0
 17142  1  0
 18143  1  6
 19144  1  0
 22145  1  6
 23146  1  0
 23147  1  0
 23148  1  0
 24149  1  0
 27150  1  1
 28151  1  0
 28152  1  0
 28153  1  0
 29154  1  0
 32155  1  1
 33156  1  0
 33157  1  0
 33158  1  0
 34159  1  0
 37160  1  1
 38161  1  0
 38162  1  0
 38163  1  0
 39164  1  0
 42165  1  1
 43166  1  0
 43167  1  0
 43168  1  0
 44169  1  0
 47170  1  1
 48171  1  0
 48172  1  0
 48173  1  0
 49174  1  0
 52175  1  1
 53176  1  0
 53177  1  0
 53178  1  0
 54179  1  0
 57180  1  6
 58181  1  0
 58182  1  0
 58183  1  0
 59184  1  0
 62185  1  1
 63186  1  0
 63187  1  0
 63188  1  0
 64189  1  0
 67190  1  1
 68191  1  0
 68192  1  0
 68193  1  0
 69194  1  0
 74195  1  0
 75196  1  1
 76197  1  0
 76198  1  0
 76199  1  0
 79200  1  0
 80201  1  6
 81202  1  0
 81203  1  0
 81204  1  0
 84205  1  0
 85206  1  6
 86207  1  0
 86208  1  0
 86209  1  0
 89210  1  0
 90211  1  6
 91212  1  0
 91213  1  0
 91214  1  0
 94215  1  0
 95216  1  1
 96217  1  0
 96218  1  0
 96219  1  0
 99220  1  0
100221  1  1
101222  1  0
101223  1  0
101224  1  0
104225  1  0
105226  1  1
106227  1  0
106228  1  0
106229  1  0
109230  1  0
110231  1  1
111232  1  0
111233  1  0
111234  1  0
114235  1  0
115236  1  6
116237  1  0
116238  1  0
116239  1  0
119240  1  0
120241  1  1
122242  1  0
122243  1  0
124244  1  0
124245  1  0
126246  1  0
126247  1  0
M  END
