
     RDKit          3D

187189  0  0  0  0  0  0  0  0999 V2000
   -1.6280    9.6810   -0.1380 C   0  0  0  0  0  0  0  0  0  0  0  0
   -0.8611    8.8762   -1.1318 C   0  0  0  0  0  0  0  0  0  0  0  0
   -0.6979    9.3173   -2.3014 O   0  0  0  0  0  0  0  0  0  0  0  0
   -0.2954    7.6189   -0.7404 N   0  0  0  0  0  0  0  0  0  0  0  0
    0.5373    6.8144   -1.6398 C   0  0  2  0  0  0  0  0  0  0  0  0
    0.8224    5.4059   -1.0715 C   0  0  0  0  0  0  0  0  0  0  0  0
   -0.5834    4.2500   -1.3315 S   0  0  0  0  0  0  0  0  0  0  0  0
   -1.6001    4.7801    0.0920 C   0  0  0  0  0  0  0  0  0  0  0  0
   -2.6048    3.7223    0.4557 C   0  0  0  0  0  0  0  0  0  0  0  0
   -3.9773    4.0041    0.4090 C   0  0  0  0  0  0  0  0  0  0  0  0
   -4.9180    3.0500    0.8293 C   0  0  0  0  0  0  0  0  0  0  0  0
   -4.4726    1.8030    1.3046 C   0  0  0  0  0  0  0  0  0  0  0  0
   -3.0978    1.4954    1.3400 C   0  0  0  0  0  0  0  0  0  0  0  0
   -2.1758    2.4718    0.9250 C   0  0  0  0  0  0  0  0  0  0  0  0
   -2.5405    0.2201    1.9395 C   0  0  0  0  0  0  0  0  0  0  0  0
   -3.7549   -1.1121    2.2787 S   0  0  0  0  0  0  0  0  0  0  0  0
   -3.9822   -1.7054    0.5549 C   0  0  0  0  0  0  0  0  0  0  0  0
   -3.8785   -3.2422    0.4681 C   0  0  2  0  0  0  0  0  0  0  0  0
   -4.1521   -3.6893   -0.9061 N   0  0  0  0  0  0  0  0  0  0  0  0
   -3.7927   -4.9677   -1.4601 C   0  0  0  0  0  0  0  0  0  0  0  0
   -4.2110   -5.2576   -2.6157 O   0  0  0  0  0  0  0  0  0  0  0  0
   -2.9402   -5.9855   -0.7352 C   0  0  1  0  0  0  0  0  0  0  0  0
   -3.7657   -7.2504   -0.4643 C   0  0  0  0  0  0  0  0  0  0  0  0
   -1.7240   -6.2532   -1.5215 N   0  0  0  0  0  0  0  0  0  0  0  0
   -1.1068   -7.5478   -1.5969 C   0  0  0  0  0  0  0  0  0  0  0  0
   -1.6589   -8.4608   -2.2653 O   0  0  0  0  0  0  0  0  0  0  0  0
    0.1389   -7.8291   -0.7999 C   0  0  1  0  0  0  0  0  0  0  0  0
   -0.2445   -8.5921    0.4754 C   0  0  0  0  0  0  0  0  0  0  0  0
    1.1074   -8.6055   -1.5889 N   0  0  0  0  0  0  0  0  0  0  0  0
    2.5246   -8.6560   -1.3362 C   0  0  0  0  0  0  0  0  0  0  0  0
    3.2611   -9.2608   -2.1576 O   0  0  0  0  0  0  0  0  0  0  0  0
    3.1604   -8.0737   -0.0946 C   0  0  1  0  0  0  0  0  0  0  0  0
    3.6326   -9.1991    0.8372 C   0  0  0  0  0  0  0  0  0  0  0  0
    4.3098   -7.2470   -0.4652 N   0  0  0  0  0  0  0  0  0  0  0  0
    4.4121   -5.8719   -0.0769 C   0  0  0  0  0  0  0  0  0  0  0  0
    3.3842   -5.1358   -0.0915 O   0  0  0  0  0  0  0  0  0  0  0  0
    5.7397   -5.2926    0.3444 C   0  0  1  0  0  0  0  0  0  0  0  0
    6.3137   -6.1467    1.4836 C   0  0  0  0  0  0  0  0  0  0  0  0
    6.6610   -5.2458   -0.8003 N   0  0  0  0  0  0  0  0  0  0  0  0
    7.8833   -4.4837   -0.8607 C   0  0  0  0  0  0  0  0  0  0  0  0
    8.5469   -4.4983   -1.9318 O   0  0  0  0  0  0  0  0  0  0  0  0
    8.4183   -3.6810    0.3044 C   0  0  1  0  0  0  0  0  0  0  0  0
    9.6527   -4.3744    0.8994 C   0  0  0  0  0  0  0  0  0  0  0  0
    8.6982   -2.3009   -0.1176 N   0  0  0  0  0  0  0  0  0  0  0  0
   10.0040   -1.8247   -0.4631 C   0  0  0  0  0  0  0  0  0  0  0  0
   10.5797   -2.2788   -1.4887 O   0  0  0  0  0  0  0  0  0  0  0  0
   10.7339   -0.8833    0.4645 C   0  0  1  0  0  0  0  0  0  0  0  0
   11.8244   -0.0555   -0.2303 C   0  0  0  0  0  0  0  0  0  0  0  0
    9.8040   -0.0301    1.2183 N   0  0  0  0  0  0  0  0  0  0  0  0
    8.9912    1.0496    0.7139 C   0  0  0  0  0  0  0  0  0  0  0  0
    8.4225    1.8011    1.5521 O   0  0  0  0  0  0  0  0  0  0  0  0
    8.7818    1.3163   -0.7638 C   0  0  1  0  0  0  0  0  0  0  0  0
    7.2940    1.3646   -1.1524 C   0  0  0  0  0  0  0  0  0  0  0  0
    9.5071    2.5210   -1.1969 N   0  0  0  0  0  0  0  0  0  0  0  0
    9.4382    3.8306   -0.6028 C   0  0  0  0  0  0  0  0  0  0  0  0
   10.4909    4.5275   -0.5727 O   0  0  0  0  0  0  0  0  0  0  0  0
    8.1229    4.4742   -0.2194 C   0  0  1  0  0  0  0  0  0  0  0  0
    8.3378    5.5606    0.8458 C   0  0  0  0  0  0  0  0  0  0  0  0
    7.4839    5.0336   -1.4254 N   0  0  0  0  0  0  0  0  0  0  0  0
    6.3587    5.9330   -1.4460 C   0  0  0  0  0  0  0  0  0  0  0  0
    6.4229    6.9438   -2.1981 O   0  0  0  0  0  0  0  0  0  0  0  0
    5.0674    5.7163   -0.6822 C   0  0  1  0  0  0  0  0  0  0  0  0
    4.8748    4.3114   -0.1019 C   0  0  0  0  0  0  0  0  0  0  0  0
    4.9163    6.7342    0.3602 N   0  0  0  0  0  0  0  0  0  0  0  0
    3.6625    6.9376    1.0155 C   0  0  0  0  0  0  0  0  0  0  0  0
    3.4420    6.3602    2.1149 O   0  0  0  0  0  0  0  0  0  0  0  0
    2.6522    7.9034    0.4661 C   0  0  1  0  0  0  0  0  0  0  0  0
    2.8395    9.2883    1.0902 C   0  0  0  0  0  0  0  0  0  0  0  0
    2.7710    8.0083   -0.9928 N   0  0  0  0  0  0  0  0  0  0  0  0
    1.8218    7.5453   -1.9750 C   0  0  0  0  0  0  0  0  0  0  0  0
    2.0716    7.7659   -3.1892 O   0  0  0  0  0  0  0  0  0  0  0  0
   -4.8033   -3.9518    1.4329 C   0  0  0  0  0  0  0  0  0  0  0  0
   -4.4026   -4.9915    2.0175 O   0  0  0  0  0  0  0  0  0  0  0  0
   -6.1026   -3.4353    1.7452 N   0  0  0  0  0  0  0  0  0  0  0  0
   -7.3457   -3.9845    1.1920 C   0  0  2  0  0  0  0  0  0  0  0  0
   -7.4277   -5.5019    1.4083 C   0  0  0  0  0  0  0  0  0  0  0  0
   -7.4842   -3.5941   -0.2603 C   0  0  0  0  0  0  0  0  0  0  0  0
   -7.1852   -4.4415   -1.1527 O   0  0  0  0  0  0  0  0  0  0  0  0
   -7.8719   -2.2686   -0.6803 N   0  0  0  0  0  0  0  0  0  0  0  0
   -8.6831   -1.2819    0.0553 C   0  0  2  0  0  0  0  0  0  0  0  0
   -7.9842   -0.7536    1.3160 C   0  0  0  0  0  0  0  0  0  0  0  0
  -10.0782   -1.7850    0.3537 C   0  0  0  0  0  0  0  0  0  0  0  0
  -10.3043   -3.0235    0.3838 O   0  0  0  0  0  0  0  0  0  0  0  0
  -11.1615   -0.8805    0.6428 N   0  0  0  0  0  0  0  0  0  0  0  0
  -11.1857    0.5579    0.3148 C   0  0  2  0  0  0  0  0  0  0  0  0
  -12.4164    1.2082    0.9635 C   0  0  0  0  0  0  0  0  0  0  0  0
  -11.2540    0.7502   -1.1830 C   0  0  0  0  0  0  0  0  0  0  0  0
  -12.0671    0.0344   -1.8329 O   0  0  0  0  0  0  0  0  0  0  0  0
  -10.4686    1.7205   -1.9139 N   0  0  0  0  0  0  0  0  0  0  0  0
   -9.5999    2.7888   -1.3916 C   0  0  1  0  0  0  0  0  0  0  0  0
  -10.2931    3.6175   -0.3330 C   0  0  0  0  0  0  0  0  0  0  0  0
  -11.4795    4.3397   -0.6598 N   0  0  0  0  0  0  0  0  0  0  0  0
   -9.8141    3.7079    0.8294 O   0  0  0  0  0  0  0  0  0  0  0  0
   -8.2202    2.2409   -0.9717 C   0  0  0  0  0  0  0  0  0  0  0  0
   -6.9631    3.5786   -0.9266 S   0  0  0  0  0  0  0  0  0  0  0  0
   -6.3840    3.3875    0.8067 C   0  0  0  0  0  0  0  0  0  0  0  0
   -2.4866    9.0888    0.2393 H   0  0  0  0  0  0  0  0  0  0  0  0
   -2.0084   10.6197   -0.5979 H   0  0  0  0  0  0  0  0  0  0  0  0
   -0.9651    9.9429    0.7152 H   0  0  0  0  0  0  0  0  0  0  0  0
   -0.4980    7.2827    0.2270 H   0  0  0  0  0  0  0  0  0  0  0  0
   -0.0254    6.6681   -2.5879 H   0  0  0  0  0  0  0  0  0  0  0  0
    1.1203    5.4331   -0.0047 H   0  0  0  0  0  0  0  0  0  0  0  0
    1.6773    4.9644   -1.6286 H   0  0  0  0  0  0  0  0  0  0  0  0
   -0.9587    4.9791    0.9770 H   0  0  0  0  0  0  0  0  0  0  0  0
   -2.1218    5.7191   -0.1872 H   0  0  0  0  0  0  0  0  0  0  0  0
   -4.3223    4.9655    0.0496 H   0  0  0  0  0  0  0  0  0  0  0  0
   -5.2008    1.0913    1.6621 H   0  0  0  0  0  0  0  0  0  0  0  0
   -1.1121    2.2661    0.9972 H   0  0  0  0  0  0  0  0  0  0  0  0
   -1.7258   -0.1769    1.2988 H   0  0  0  0  0  0  0  0  0  0  0  0
   -2.0863    0.4881    2.9173 H   0  0  0  0  0  0  0  0  0  0  0  0
   -4.9738   -1.3687    0.1972 H   0  0  0  0  0  0  0  0  0  0  0  0
   -3.2230   -1.2593   -0.1243 H   0  0  0  0  0  0  0  0  0  0  0  0
   -2.8230   -3.4812    0.7253 H   0  0  0  0  0  0  0  0  0  0  0  0
   -4.7146   -3.0555   -1.5208 H   0  0  0  0  0  0  0  0  0  0  0  0
   -2.6086   -5.5965    0.2470 H   0  0  0  0  0  0  0  0  0  0  0  0
   -4.6736   -6.9927    0.1142 H   0  0  0  0  0  0  0  0  0  0  0  0
   -3.1830   -7.9703    0.1464 H   0  0  0  0  0  0  0  0  0  0  0  0
   -4.0745   -7.7398   -1.4129 H   0  0  0  0  0  0  0  0  0  0  0  0
   -1.0975   -5.4346   -1.7000 H   0  0  0  0  0  0  0  0  0  0  0  0
    0.5858   -6.8492   -0.5275 H   0  0  0  0  0  0  0  0  0  0  0  0
    0.6508   -8.8485    1.0701 H   0  0  0  0  0  0  0  0  0  0  0  0
   -0.9028   -7.9599    1.1095 H   0  0  0  0  0  0  0  0  0  0  0  0
   -0.7791   -9.5311    0.2215 H   0  0  0  0  0  0  0  0  0  0  0  0
    0.7545   -9.1937   -2.3799 H   0  0  0  0  0  0  0  0  0  0  0  0
    2.4434   -7.4596    0.4810 H   0  0  0  0  0  0  0  0  0  0  0  0
    4.4132   -9.8153    0.3428 H   0  0  0  0  0  0  0  0  0  0  0  0
    2.7843   -9.8575    1.1163 H   0  0  0  0  0  0  0  0  0  0  0  0
    4.0593   -8.7637    1.7652 H   0  0  0  0  0  0  0  0  0  0  0  0
    5.1493   -7.7174   -0.8790 H   0  0  0  0  0  0  0  0  0  0  0  0
    5.5608   -4.2618    0.7144 H   0  0  0  0  0  0  0  0  0  0  0  0
    5.5385   -6.3154    2.2629 H   0  0  0  0  0  0  0  0  0  0  0  0
    6.6578   -7.1311    1.1003 H   0  0  0  0  0  0  0  0  0  0  0  0
    7.1658   -5.6422    1.9774 H   0  0  0  0  0  0  0  0  0  0  0  0
    6.3989   -5.7564   -1.6748 H   0  0  0  0  0  0  0  0  0  0  0  0
    7.6663   -3.6125    1.1144 H   0  0  0  0  0  0  0  0  0  0  0  0
    9.3841   -5.3846    1.2741 H   0  0  0  0  0  0  0  0  0  0  0  0
   10.4474   -4.4940    0.1330 H   0  0  0  0  0  0  0  0  0  0  0  0
   10.0499   -3.7801    1.7468 H   0  0  0  0  0  0  0  0  0  0  0  0
    7.9019   -1.6202   -0.1325 H   0  0  0  0  0  0  0  0  0  0  0  0
   11.2591   -1.5326    1.1963 H   0  0  0  0  0  0  0  0  0  0  0  0
   12.2061    0.7268    0.4581 H   0  0  0  0  0  0  0  0  0  0  0  0
   11.4522    0.4323   -1.1524 H   0  0  0  0  0  0  0  0  0  0  0  0
   12.6728   -0.7124   -0.5144 H   0  0  0  0  0  0  0  0  0  0  0  0
    9.7514   -0.2038    2.2493 H   0  0  0  0  0  0  0  0  0  0  0  0
    9.1892    0.4678   -1.3452 H   0  0  0  0  0  0  0  0  0  0  0  0
    7.1449    2.0017   -2.0499 H   0  0  0  0  0  0  0  0  0  0  0  0
    6.6553    1.7376   -0.3286 H   0  0  0  0  0  0  0  0  0  0  0  0
    6.9348    0.3414   -1.3975 H   0  0  0  0  0  0  0  0  0  0  0  0
   10.2926    2.3679   -1.8727 H   0  0  0  0  0  0  0  0  0  0  0  0
    7.4784    3.7079    0.2208 H   0  0  0  0  0  0  0  0  0  0  0  0
    8.8572    6.4413    0.4097 H   0  0  0  0  0  0  0  0  0  0  0  0
    8.9479    5.1591    1.6846 H   0  0  0  0  0  0  0  0  0  0  0  0
    7.3698    5.8870    1.2727 H   0  0  0  0  0  0  0  0  0  0  0  0
    8.0266    4.9931   -2.3193 H   0  0  0  0  0  0  0  0  0  0  0  0
    4.2529    5.8514   -1.4242 H   0  0  0  0  0  0  0  0  0  0  0  0
    5.4287    4.1903    0.8532 H   0  0  0  0  0  0  0  0  0  0  0  0
    3.7993    4.1494    0.1227 H   0  0  0  0  0  0  0  0  0  0  0  0
    5.1845    3.5427   -0.8381 H   0  0  0  0  0  0  0  0  0  0  0  0
    5.6964    7.3922    0.5870 H   0  0  0  0  0  0  0  0  0  0  0  0
    1.6563    7.5449    0.7638 H   0  0  0  0  0  0  0  0  0  0  0  0
    2.6977    9.2389    2.1924 H   0  0  0  0  0  0  0  0  0  0  0  0
    3.8551    9.6850    0.8671 H   0  0  0  0  0  0  0  0  0  0  0  0
    2.0859    9.9920    0.6754 H   0  0  0  0  0  0  0  0  0  0  0  0
    3.6418    8.4536   -1.3650 H   0  0  0  0  0  0  0  0  0  0  0  0
   -6.1720   -2.7711    2.5461 H   0  0  0  0  0  0  0  0  0  0  0  0
   -8.2064   -3.5757    1.7551 H   0  0  0  0  0  0  0  0  0  0  0  0
   -8.4195   -5.8798    1.0727 H   0  0  0  0  0  0  0  0  0  0  0  0
   -7.3110   -5.7425    2.4852 H   0  0  0  0  0  0  0  0  0  0  0  0
   -6.6424   -6.0336    0.8339 H   0  0  0  0  0  0  0  0  0  0  0  0
   -7.6539   -2.0294   -1.6775 H   0  0  0  0  0  0  0  0  0  0  0  0
   -8.8054   -0.4216   -0.6271 H   0  0  0  0  0  0  0  0  0  0  0  0
   -6.9246   -0.5186    1.0964 H   0  0  0  0  0  0  0  0  0  0  0  0
   -8.0496   -1.4555    2.1662 H   0  0  0  0  0  0  0  0  0  0  0  0
   -8.4617    0.1765    1.6767 H   0  0  0  0  0  0  0  0  0  0  0  0
  -12.0257   -1.3143    1.0393 H   0  0  0  0  0  0  0  0  0  0  0  0
  -10.2964    1.0506    0.7386 H   0  0  0  0  0  0  0  0  0  0  0  0
  -12.3242    1.1724    2.0717 H   0  0  0  0  0  0  0  0  0  0  0  0
  -13.3410    0.6725    0.6650 H   0  0  0  0  0  0  0  0  0  0  0  0
  -12.5148    2.2674    0.6589 H   0  0  0  0  0  0  0  0  0  0  0  0
  -10.6080    1.7250   -2.9498 H   0  0  0  0  0  0  0  0  0  0  0  0
   -9.4018    3.4879   -2.2381 H   0  0  0  0  0  0  0  0  0  0  0  0
  -11.9123    4.2599   -1.6079 H   0  0  0  0  0  0  0  0  0  0  0  0
  -11.9191    4.9753    0.0421 H   0  0  0  0  0  0  0  0  0  0  0  0
   -7.8732    1.5048   -1.7294 H   0  0  0  0  0  0  0  0  0  0  0  0
   -8.2933    1.7139   -0.0100 H   0  0  0  0  0  0  0  0  0  0  0  0
   -6.5358    4.3611    1.3197 H   0  0  0  0  0  0  0  0  0  0  0  0
   -6.9667    2.6431    1.3852 H   0  0  0  0  0  0  0  0  0  0  0  0
  1  2  1  0
  2  3  2  0
  2  4  1  0
  4  5  1  0
  5  6  1  0
  6  7  1  0
  7  8  1  0
  8  9  1  0
  9 10  2  0
 10 11  1  0
 11 12  2  0
 12 13  1  0
 13 14  2  0
 13 15  1  0
 15 16  1  0
 16 17  1  0
 17 18  1  0
 18 19  1  0
 19 20  1  0
 20 21  2  0
 20 22  1  0
 22 23  1  0
 22 24  1  0
 24 25  1  0
 25 26  2  0
 25 27  1  0
 27 28  1  0
 27 29  1  0
 29 30  1  0
 30 31  2  0
 30 32  1  0
 32 33  1  0
 32 34  1  0
 34 35  1  0
 35 36  2  0
 35 37  1  0
 37 38  1  0
 37 39  1  0
 39 40  1  0
 40 41  2  0
 40 42  1  0
 42 43  1  0
 42 44  1  0
 44 45  1  0
 45 46  2  0
 45 47  1  0
 47 48  1  0
 47 49  1  0
 49 50  1  0
 50 51  2  0
 50 52  1  0
 52 53  1  0
 52 54  1  0
 54 55  1  0
 55 56  2  0
 55 57  1  0
 57 58  1  0
 57 59  1  0
 59 60  1  0
 60 61  2  0
 60 62  1  0
 62 63  1  0
 62 64  1  0
 64 65  1  0
 65 66  2  0
 65 67  1  0
 67 68  1  0
 67 69  1  0
 69 70  1  0
 70 71  2  0
 18 72  1  0
 72 73  2  0
 72 74  1  0
 74 75  1  0
 75 76  1  0
 75 77  1  0
 77 78  2  0
 77 79  1  0
 79 80  1  0
 80 81  1  0
 80 82  1  0
 82 83  2  0
 82 84  1  0
 84 85  1  0
 85 86  1  0
 85 87  1  0
 87 88  2  0
 87 89  1  0
 89 90  1  0
 90 91  1  0
 91 92  1  0
 91 93  2  0
 90 94  1  0
 94 95  1  0
 95 96  1  0
 70  5  1  0
 14  9  1  0
 96 11  1  0
  1 97  1  0
  1 98  1  0
  1 99  1  0
  4100  1  0
  5101  1  6
  6102  1  0
  6103  1  0
  8104  1  0
  8105  1  0
 10106  1  0
 12107  1  0
 14108  1  0
 15109  1  0
 15110  1  0
 17111  1  0
 17112  1  0
 18113  1  1
 19114  1  0
 22115  1  1
 23116  1  0
 23117  1  0
 23118  1  0
 24119  1  0
 27120  1  1
 28121  1  0
 28122  1  0
 28123  1  0
 29124  1  0
 32125  1  1
 33126  1  0
 33127  1  0
 33128  1  0
 34129  1  0
 37130  1  1
 38131  1  0
 38132  1  0
 38133  1  0
 39134  1  0
 42135  1  1
 43136  1  0
 43137  1  0
 43138  1  0
 44139  1  0
 47140  1  1
 48141  1  0
 48142  1  0
 48143  1  0
 49144  1  0
 52145  1  6
 53146  1  0
 53147  1  0
 53148  1  0
 54149  1  0
 57150  1  1
 58151  1  0
 58152  1  0
 58153  1  0
 59154  1  0
 62155  1  6
 63156  1  0
 63157  1  0
 63158  1  0
 64159  1  0
 67160  1  6
 68161  1  0
 68162  1  0
 68163  1  0
 69164  1  0
 74165  1  0
 75166  1  1
 76167  1  0
 76168  1  0
 76169  1  0
 79170  1  0
 80171  1  6
 81172  1  0
 81173  1  0
 81174  1  0
 84175  1  0
 85176  1  1
 86177  1  0
 86178  1  0
 86179  1  0
 89180  1  0
 90181  1  6
 92182  1  0
 92183  1  0
 94184  1  0
 94185  1  0
 96186  1  0
 96187  1  0
M  END
