
     RDKit          3D

257259  0  0  0  0  0  0  0  0999 V2000
   -2.8491   -8.5444    2.4108 C   0  0  0  0  0  0  0  0  0  0  0  0
   -2.7679   -9.1926    1.0546 C   0  0  0  0  0  0  0  0  0  0  0  0
   -1.9238  -10.1110    0.8713 O   0  0  0  0  0  0  0  0  0  0  0  0
   -3.6326   -8.8175   -0.0296 N   0  0  0  0  0  0  0  0  0  0  0  0
   -3.9802   -7.4246   -0.3587 C   0  0  2  0  0  0  0  0  0  0  0  0
   -2.7043   -6.6116   -0.6596 C   0  0  0  0  0  0  0  0  0  0  0  0
   -3.1455   -4.9112   -1.1996 S   0  0  0  0  0  0  0  0  0  0  0  0
   -1.7854   -4.6419   -2.3803 C   0  0  0  0  0  0  0  0  0  0  0  0
   -0.6809   -3.8268   -1.7619 C   0  0  0  0  0  0  0  0  0  0  0  0
   -0.5412   -2.4655   -2.0861 C   0  0  0  0  0  0  0  0  0  0  0  0
    0.5881   -1.7488   -1.6608 C   0  0  0  0  0  0  0  0  0  0  0  0
    1.5884   -2.4049   -0.9232 C   0  0  0  0  0  0  0  0  0  0  0  0
    1.4354   -3.7456   -0.5328 C   0  0  0  0  0  0  0  0  0  0  0  0
    0.2869   -4.4528   -0.9590 C   0  0  0  0  0  0  0  0  0  0  0  0
    2.5310   -4.3668    0.3141 C   0  0  0  0  0  0  0  0  0  0  0  0
    2.2466   -6.1105    0.8127 S   0  0  0  0  0  0  0  0  0  0  0  0
    2.8097   -6.8630   -0.7638 C   0  0  0  0  0  0  0  0  0  0  0  0
    4.1756   -7.5505   -0.6045 C   0  0  1  0  0  0  0  0  0  0  0  0
    4.5619   -8.3071   -1.8545 C   0  0  0  0  0  0  0  0  0  0  0  0
    4.6144   -7.6447   -3.1230 N   0  0  0  0  0  0  0  0  0  0  0  0
    4.8372   -9.5371   -1.7855 O   0  0  0  0  0  0  0  0  0  0  0  0
    5.2086   -6.5970   -0.1684 N   0  0  0  0  0  0  0  0  0  0  0  0
    6.3234   -6.1924   -0.9595 C   0  0  0  0  0  0  0  0  0  0  0  0
    6.1646   -5.2860   -1.8267 O   0  0  0  0  0  0  0  0  0  0  0  0
    7.7159   -6.6901   -0.6452 C   0  0  1  0  0  0  0  0  0  0  0  0
    7.6867   -7.9700    0.2014 C   0  0  0  0  0  0  0  0  0  0  0  0
    8.4587   -6.9273   -1.8890 N   0  0  0  0  0  0  0  0  0  0  0  0
    9.8943   -6.8937   -2.0170 C   0  0  0  0  0  0  0  0  0  0  0  0
   10.3930   -7.0228   -3.1707 O   0  0  0  0  0  0  0  0  0  0  0  0
   10.8256   -6.7385   -0.8377 C   0  0  1  0  0  0  0  0  0  0  0  0
   11.7161   -7.9753   -0.6835 C   0  0  0  0  0  0  0  0  0  0  0  0
   11.6623   -5.5496   -1.0064 N   0  0  0  0  0  0  0  0  0  0  0  0
   11.5717   -4.4413   -0.1052 C   0  0  0  0  0  0  0  0  0  0  0  0
   10.4476   -3.9245    0.1321 O   0  0  0  0  0  0  0  0  0  0  0  0
   12.7786   -3.9405    0.6425 C   0  0  1  0  0  0  0  0  0  0  0  0
   12.7897   -4.5077    2.0592 C   0  0  0  0  0  0  0  0  0  0  0  0
   14.0320   -4.3152   -0.0433 N   0  0  0  0  0  0  0  0  0  0  0  0
   15.0671   -3.4047   -0.4065 C   0  0  0  0  0  0  0  0  0  0  0  0
   15.8603   -3.7321   -1.3242 O   0  0  0  0  0  0  0  0  0  0  0  0
   15.2496   -2.0692    0.2839 C   0  0  1  0  0  0  0  0  0  0  0  0
   16.7114   -1.8936    0.7512 C   0  0  0  0  0  0  0  0  0  0  0  0
   14.8910   -0.9802   -0.6311 N   0  0  0  0  0  0  0  0  0  0  0  0
   13.6441   -0.2858   -0.4987 C   0  0  0  0  0  0  0  0  0  0  0  0
   12.5702   -0.8710   -0.7861 O   0  0  0  0  0  0  0  0  0  0  0  0
   13.6081    1.1576   -0.0665 C   0  0  1  0  0  0  0  0  0  0  0  0
   14.5665    1.4140    1.1007 C   0  0  0  0  0  0  0  0  0  0  0  0
   13.9322    2.0314   -1.2007 N   0  0  0  0  0  0  0  0  0  0  0  0
   13.5857    3.4284   -1.2910 C   0  0  0  0  0  0  0  0  0  0  0  0
   13.9131    4.0589   -2.3304 O   0  0  0  0  0  0  0  0  0  0  0  0
   12.8334    4.1713   -0.2043 C   0  0  1  0  0  0  0  0  0  0  0  0
   13.7061    5.3081    0.3616 C   0  0  0  0  0  0  0  0  0  0  0  0
   11.5478    4.6323   -0.7398 N   0  0  0  0  0  0  0  0  0  0  0  0
   11.2094    6.0068   -0.9502 C   0  0  0  0  0  0  0  0  0  0  0  0
   11.8788    6.6898   -1.7837 O   0  0  0  0  0  0  0  0  0  0  0  0
   10.0760    6.6610   -0.1861 C   0  0  1  0  0  0  0  0  0  0  0  0
    8.9974    7.1358   -1.1681 C   0  0  0  0  0  0  0  0  0  0  0  0
    9.5350    5.7435    0.8242 N   0  0  0  0  0  0  0  0  0  0  0  0
    8.2993    6.0058    1.4967 C   0  0  0  0  0  0  0  0  0  0  0  0
    8.2977    6.7959    2.4819 O   0  0  0  0  0  0  0  0  0  0  0  0
    7.0112    5.3613    1.0325 C   0  0  1  0  0  0  0  0  0  0  0  0
    7.2545    3.9491    0.4871 C   0  0  0  0  0  0  0  0  0  0  0  0
    6.0543    5.3010    2.1423 N   0  0  0  0  0  0  0  0  0  0  0  0
    5.0724    6.3111    2.4452 C   0  0  0  0  0  0  0  0  0  0  0  0
    4.7675    6.5137    3.6488 O   0  0  0  0  0  0  0  0  0  0  0  0
    4.3591    7.1100    1.3846 C   0  0  1  0  0  0  0  0  0  0  0  0
    5.1607    8.3574    1.0057 C   0  0  0  0  0  0  0  0  0  0  0  0
    4.0383    6.2675    0.2153 N   0  0  0  0  0  0  0  0  0  0  0  0
    3.0874    5.1878    0.2424 C   0  0  0  0  0  0  0  0  0  0  0  0
    3.1131    4.3321   -0.6772 O   0  0  0  0  0  0  0  0  0  0  0  0
    1.9744    5.1368    1.2672 C   0  0  1  0  0  0  0  0  0  0  0  0
    0.8591    6.1033    0.8576 C   0  0  0  0  0  0  0  0  0  0  0  0
    1.5171    3.7486    1.4559 N   0  0  0  0  0  0  0  0  0  0  0  0
    0.2062    3.2488    1.1548 C   0  0  0  0  0  0  0  0  0  0  0  0
   -0.5025    2.7701    2.0841 O   0  0  0  0  0  0  0  0  0  0  0  0
   -0.3092    3.1934   -0.2633 C   0  0  1  0  0  0  0  0  0  0  0  0
   -0.4757    1.7268   -0.7436 C   0  0  0  0  0  0  0  0  0  0  0  0
    1.1336    0.8334   -0.7419 S   0  0  0  0  0  0  0  0  0  0  0  0
    0.8094   -0.3269   -2.1275 C   0  0  0  0  0  0  0  0  0  0  0  0
   -1.5536    3.9708   -0.3473 N   0  0  0  0  0  0  0  0  0  0  0  0
   -2.8829    3.4295   -0.4861 C   0  0  0  0  0  0  0  0  0  0  0  0
   -3.1522    2.6400   -1.4266 O   0  0  0  0  0  0  0  0  0  0  0  0
   -3.9919    3.8271    0.4609 C   0  0  1  0  0  0  0  0  0  0  0  0
   -4.3761    2.6371    1.3383 C   0  0  0  0  0  0  0  0  0  0  0  0
   -3.5784    4.9395    1.3320 N   0  0  0  0  0  0  0  0  0  0  0  0
   -4.1982    6.2449    1.3951 C   0  0  0  0  0  0  0  0  0  0  0  0
   -3.7599    7.0799    2.2321 O   0  0  0  0  0  0  0  0  0  0  0  0
   -5.3274    6.6875    0.4817 C   0  0  1  0  0  0  0  0  0  0  0  0
   -4.8187    6.7916   -0.9688 C   0  0  0  0  0  0  0  0  0  0  0  0
   -6.4947    5.7903    0.6167 N   0  0  0  0  0  0  0  0  0  0  0  0
   -7.6222    5.7765   -0.2763 C   0  0  0  0  0  0  0  0  0  0  0  0
   -8.1639    4.6727   -0.5400 O   0  0  0  0  0  0  0  0  0  0  0  0
   -8.2251    7.0430   -0.8389 C   0  0  1  0  0  0  0  0  0  0  0  0
   -8.1895    6.9984   -2.3769 C   0  0  0  0  0  0  0  0  0  0  0  0
   -9.6099    7.1688   -0.3591 N   0  0  0  0  0  0  0  0  0  0  0  0
  -10.4712    8.2568   -0.7246 C   0  0  0  0  0  0  0  0  0  0  0  0
   -9.9969    9.4227   -0.8402 O   0  0  0  0  0  0  0  0  0  0  0  0
  -11.9517    8.0055   -0.9218 C   0  0  1  0  0  0  0  0  0  0  0  0
  -12.5679    9.0223   -1.8999 C   0  0  0  0  0  0  0  0  0  0  0  0
  -12.1578    6.6509   -1.4527 N   0  0  0  0  0  0  0  0  0  0  0  0
  -13.3828    5.9123   -1.3366 C   0  0  0  0  0  0  0  0  0  0  0  0
  -13.7453    5.2012   -2.3210 O   0  0  0  0  0  0  0  0  0  0  0  0
  -14.1486    5.8134   -0.0339 C   0  0  1  0  0  0  0  0  0  0  0  0
  -15.6643    5.6752   -0.2543 C   0  0  0  0  0  0  0  0  0  0  0  0
  -13.6502    4.7080    0.7958 N   0  0  0  0  0  0  0  0  0  0  0  0
  -13.4664    3.3639    0.2973 C   0  0  0  0  0  0  0  0  0  0  0  0
  -14.2122    2.9290   -0.6274 O   0  0  0  0  0  0  0  0  0  0  0  0
  -12.3958    2.4504    0.8362 C   0  0  1  0  0  0  0  0  0  0  0  0
  -11.2981    3.1638    1.6293 C   0  0  0  0  0  0  0  0  0  0  0  0
  -12.9947    1.3998    1.6647 N   0  0  0  0  0  0  0  0  0  0  0  0
  -13.0849    0.0047    1.3186 C   0  0  0  0  0  0  0  0  0  0  0  0
  -13.3539   -0.8230    2.2419 O   0  0  0  0  0  0  0  0  0  0  0  0
  -12.8952   -0.4887   -0.1010 C   0  0  1  0  0  0  0  0  0  0  0  0
  -11.4288   -0.7679   -0.4713 C   0  0  0  0  0  0  0  0  0  0  0  0
  -13.7721   -1.6333   -0.4038 N   0  0  0  0  0  0  0  0  0  0  0  0
  -13.7104   -2.9781    0.1100 C   0  0  0  0  0  0  0  0  0  0  0  0
  -14.6206   -3.7823   -0.2369 O   0  0  0  0  0  0  0  0  0  0  0  0
  -12.5745   -3.5135    0.9626 C   0  0  1  0  0  0  0  0  0  0  0  0
  -13.1262   -4.3236    2.1485 C   0  0  0  0  0  0  0  0  0  0  0  0
  -11.6607   -4.2825    0.0971 N   0  0  0  0  0  0  0  0  0  0  0  0
  -11.1312   -5.5816    0.3925 C   0  0  0  0  0  0  0  0  0  0  0  0
  -11.9127   -6.5478    0.6250 O   0  0  0  0  0  0  0  0  0  0  0  0
   -9.6392   -5.8184    0.3174 C   0  0  1  0  0  0  0  0  0  0  0  0
   -8.8875   -4.6543    0.9898 C   0  0  0  0  0  0  0  0  0  0  0  0
   -9.2699   -7.0840    0.9729 N   0  0  0  0  0  0  0  0  0  0  0  0
   -8.4695   -8.1127    0.3713 C   0  0  0  0  0  0  0  0  0  0  0  0
   -8.8922   -9.2987    0.3988 O   0  0  0  0  0  0  0  0  0  0  0  0
   -7.0936   -7.8377   -0.2078 C   0  0  1  0  0  0  0  0  0  0  0  0
   -7.2202   -7.1293   -1.5714 C   0  0  0  0  0  0  0  0  0  0  0  0
   -6.2940   -7.0514    0.7522 N   0  0  0  0  0  0  0  0  0  0  0  0
   -4.8733   -6.8066    0.6915 C   0  0  0  0  0  0  0  0  0  0  0  0
   -4.3740   -6.0208    1.5384 O   0  0  0  0  0  0  0  0  0  0  0  0
   -2.3001   -9.1501    3.1638 H   0  0  0  0  0  0  0  0  0  0  0  0
   -3.9075   -8.4623    2.7362 H   0  0  0  0  0  0  0  0  0  0  0  0
   -2.3809   -7.5421    2.3633 H   0  0  0  0  0  0  0  0  0  0  0  0
   -3.8383   -9.5503   -0.7475 H   0  0  0  0  0  0  0  0  0  0  0  0
   -4.5249   -7.4534   -1.3150 H   0  0  0  0  0  0  0  0  0  0  0  0
   -2.1304   -7.1481   -1.4487 H   0  0  0  0  0  0  0  0  0  0  0  0
   -2.0596   -6.5424    0.2341 H   0  0  0  0  0  0  0  0  0  0  0  0
   -2.2184   -4.1068   -3.2555 H   0  0  0  0  0  0  0  0  0  0  0  0
   -1.3672   -5.5826   -2.7950 H   0  0  0  0  0  0  0  0  0  0  0  0
   -1.3058   -1.9830   -2.6974 H   0  0  0  0  0  0  0  0  0  0  0  0
    2.4884   -1.8650   -0.6498 H   0  0  0  0  0  0  0  0  0  0  0  0
    0.1544   -5.5037   -0.7267 H   0  0  0  0  0  0  0  0  0  0  0  0
    3.5054   -4.2718   -0.2098 H   0  0  0  0  0  0  0  0  0  0  0  0
    2.6267   -3.7820    1.2516 H   0  0  0  0  0  0  0  0  0  0  0  0
    2.8444   -6.1024   -1.5732 H   0  0  0  0  0  0  0  0  0  0  0  0
    2.0518   -7.6285   -1.0446 H   0  0  0  0  0  0  0  0  0  0  0  0
    4.0547   -8.3090    0.2029 H   0  0  0  0  0  0  0  0  0  0  0  0
    4.4603   -6.6168   -3.2116 H   0  0  0  0  0  0  0  0  0  0  0  0
    4.9424   -8.1580   -3.9654 H   0  0  0  0  0  0  0  0  0  0  0  0
    5.2007   -6.2763    0.8282 H   0  0  0  0  0  0  0  0  0  0  0  0
    8.2024   -5.8788   -0.0601 H   0  0  0  0  0  0  0  0  0  0  0  0
    7.0761   -8.7539   -0.3013 H   0  0  0  0  0  0  0  0  0  0  0  0
    7.2469   -7.7561    1.1965 H   0  0  0  0  0  0  0  0  0  0  0  0
    8.7074   -8.3733    0.3584 H   0  0  0  0  0  0  0  0  0  0  0  0
    7.9218   -7.2064   -2.7435 H   0  0  0  0  0  0  0  0  0  0  0  0
   10.2642   -6.6493    0.1159 H   0  0  0  0  0  0  0  0  0  0  0  0
   12.3266   -7.8958    0.2368 H   0  0  0  0  0  0  0  0  0  0  0  0
   12.4050   -8.0678   -1.5495 H   0  0  0  0  0  0  0  0  0  0  0  0
   11.0940   -8.8938   -0.6179 H   0  0  0  0  0  0  0  0  0  0  0  0
   12.3837   -5.5308   -1.7659 H   0  0  0  0  0  0  0  0  0  0  0  0
   12.6910   -2.8398    0.7142 H   0  0  0  0  0  0  0  0  0  0  0  0
   12.8263   -5.6234    2.0418 H   0  0  0  0  0  0  0  0  0  0  0  0
   13.6716   -4.1243    2.6242 H   0  0  0  0  0  0  0  0  0  0  0  0
   11.8739   -4.1918    2.6062 H   0  0  0  0  0  0  0  0  0  0  0  0
   14.1711   -5.3314   -0.2882 H   0  0  0  0  0  0  0  0  0  0  0  0
   14.6378   -2.0151    1.2079 H   0  0  0  0  0  0  0  0  0  0  0  0
   17.4251   -2.1168   -0.0727 H   0  0  0  0  0  0  0  0  0  0  0  0
   16.9188   -2.5802    1.6029 H   0  0  0  0  0  0  0  0  0  0  0  0
   16.8758   -0.8512    1.0828 H   0  0  0  0  0  0  0  0  0  0  0  0
   15.6251   -0.5549   -1.2344 H   0  0  0  0  0  0  0  0  0  0  0  0
   12.5685    1.3668    0.2706 H   0  0  0  0  0  0  0  0  0  0  0  0
   14.3429    0.7211    1.9393 H   0  0  0  0  0  0  0  0  0  0  0  0
   15.6175    1.2689    0.7828 H   0  0  0  0  0  0  0  0  0  0  0  0
   14.4587    2.4486    1.4785 H   0  0  0  0  0  0  0  0  0  0  0  0
   14.4582    1.6258   -2.0090 H   0  0  0  0  0  0  0  0  0  0  0  0
   12.6061    3.5102    0.6558 H   0  0  0  0  0  0  0  0  0  0  0  0
   14.0416    5.9916   -0.4485 H   0  0  0  0  0  0  0  0  0  0  0  0
   13.1309    5.8917    1.1084 H   0  0  0  0  0  0  0  0  0  0  0  0
   14.6011    4.8925    0.8650 H   0  0  0  0  0  0  0  0  0  0  0  0
   10.7783    3.9283   -0.8032 H   0  0  0  0  0  0  0  0  0  0  0  0
   10.5010    7.5494    0.3396 H   0  0  0  0  0  0  0  0  0  0  0  0
    9.4452    7.7765   -1.9543 H   0  0  0  0  0  0  0  0  0  0  0  0
    8.2401    7.7453   -0.6388 H   0  0  0  0  0  0  0  0  0  0  0  0
    8.4995    6.2634   -1.6421 H   0  0  0  0  0  0  0  0  0  0  0  0
   10.2244    5.2120    1.3969 H   0  0  0  0  0  0  0  0  0  0  0  0
    6.6101    5.9643    0.1983 H   0  0  0  0  0  0  0  0  0  0  0  0
    7.9444    3.9750   -0.3769 H   0  0  0  0  0  0  0  0  0  0  0  0
    7.6805    3.2934    1.2787 H   0  0  0  0  0  0  0  0  0  0  0  0
    6.2912    3.5106    0.1399 H   0  0  0  0  0  0  0  0  0  0  0  0
    6.2516    4.6015    2.9033 H   0  0  0  0  0  0  0  0  0  0  0  0
    3.4070    7.4921    1.8096 H   0  0  0  0  0  0  0  0  0  0  0  0
    4.6121    8.9416    0.2370 H   0  0  0  0  0  0  0  0  0  0  0  0
    5.2895    8.9958    1.9064 H   0  0  0  0  0  0  0  0  0  0  0  0
    6.1731    8.1068    0.6248 H   0  0  0  0  0  0  0  0  0  0  0  0
    4.5497    6.4211   -0.6820 H   0  0  0  0  0  0  0  0  0  0  0  0
    2.3530    5.4759    2.2576 H   0  0  0  0  0  0  0  0  0  0  0  0
    1.2187    7.1500    0.9802 H   0  0  0  0  0  0  0  0  0  0  0  0
    0.5749    5.9603   -0.2150 H   0  0  0  0  0  0  0  0  0  0  0  0
   -0.0306    5.9898    1.5131 H   0  0  0  0  0  0  0  0  0  0  0  0
    2.1006    3.1543    2.0929 H   0  0  0  0  0  0  0  0  0  0  0  0
    0.4328    3.6543   -0.9471 H   0  0  0  0  0  0  0  0  0  0  0  0
   -0.8846    1.7542   -1.7769 H   0  0  0  0  0  0  0  0  0  0  0  0
   -1.1882    1.1747   -0.0803 H   0  0  0  0  0  0  0  0  0  0  0  0
    1.6961   -0.3267   -2.7934 H   0  0  0  0  0  0  0  0  0  0  0  0
   -0.0389    0.0072   -2.7522 H   0  0  0  0  0  0  0  0  0  0  0  0
   -1.4971    4.9952   -0.1081 H   0  0  0  0  0  0  0  0  0  0  0  0
   -4.8720    4.0886   -0.1530 H   0  0  0  0  0  0  0  0  0  0  0  0
   -3.5165    2.3116    1.9675 H   0  0  0  0  0  0  0  0  0  0  0  0
   -4.7094    1.7808    0.7099 H   0  0  0  0  0  0  0  0  0  0  0  0
   -5.2119    2.9226    2.0083 H   0  0  0  0  0  0  0  0  0  0  0  0
   -2.7864    4.7553    1.9950 H   0  0  0  0  0  0  0  0  0  0  0  0
   -5.6414    7.7037    0.8124 H   0  0  0  0  0  0  0  0  0  0  0  0
   -3.7499    7.0845   -0.9975 H   0  0  0  0  0  0  0  0  0  0  0  0
   -4.9375    5.8384   -1.5175 H   0  0  0  0  0  0  0  0  0  0  0  0
   -5.3949    7.5695   -1.5058 H   0  0  0  0  0  0  0  0  0  0  0  0
   -6.4875    5.0509    1.3555 H   0  0  0  0  0  0  0  0  0  0  0  0
   -7.6458    7.9238   -0.4896 H   0  0  0  0  0  0  0  0  0  0  0  0
   -7.1637    6.7894   -2.7520 H   0  0  0  0  0  0  0  0  0  0  0  0
   -8.8680    6.2028   -2.7468 H   0  0  0  0  0  0  0  0  0  0  0  0
   -8.5146    7.9758   -2.7948 H   0  0  0  0  0  0  0  0  0  0  0  0
  -10.0458    6.3622    0.1435 H   0  0  0  0  0  0  0  0  0  0  0  0
  -12.4315    8.1295    0.0641 H   0  0  0  0  0  0  0  0  0  0  0  0
  -12.0453    8.9917   -2.8810 H   0  0  0  0  0  0  0  0  0  0  0  0
  -13.6341    8.7806   -2.0805 H   0  0  0  0  0  0  0  0  0  0  0  0
  -12.5112   10.0518   -1.4896 H   0  0  0  0  0  0  0  0  0  0  0  0
  -11.5072    6.3380   -2.2155 H   0  0  0  0  0  0  0  0  0  0  0  0
  -14.0203    6.7444    0.5378 H   0  0  0  0  0  0  0  0  0  0  0  0
  -15.9227    4.8595   -0.9552 H   0  0  0  0  0  0  0  0  0  0  0  0
  -16.1804    5.4601    0.7041 H   0  0  0  0  0  0  0  0  0  0  0  0
  -16.0645    6.6371   -0.6445 H   0  0  0  0  0  0  0  0  0  0  0  0
  -13.2864    4.9393    1.7452 H   0  0  0  0  0  0  0  0  0  0  0  0
  -11.8839    2.0144   -0.0548 H   0  0  0  0  0  0  0  0  0  0  0  0
  -10.4522    2.4652    1.8110 H   0  0  0  0  0  0  0  0  0  0  0  0
  -11.6853    3.5064    2.6134 H   0  0  0  0  0  0  0  0  0  0  0  0
  -10.9183    4.0359    1.0628 H   0  0  0  0  0  0  0  0  0  0  0  0
  -13.3692    1.6745    2.6031 H   0  0  0  0  0  0  0  0  0  0  0  0
  -13.2349    0.3365   -0.7756 H   0  0  0  0  0  0  0  0  0  0  0  0
  -10.9335    0.1512   -0.8428 H   0  0  0  0  0  0  0  0  0  0  0  0
  -11.3722   -1.5081   -1.2969 H   0  0  0  0  0  0  0  0  0  0  0  0
  -10.8414   -1.1312    0.3931 H   0  0  0  0  0  0  0  0  0  0  0  0
  -14.5766   -1.4261   -1.0412 H   0  0  0  0  0  0  0  0  0  0  0  0
  -11.9917   -2.6825    1.3992 H   0  0  0  0  0  0  0  0  0  0  0  0
  -13.7616   -3.6710    2.7804 H   0  0  0  0  0  0  0  0  0  0  0  0
  -13.7571   -5.1713    1.7944 H   0  0  0  0  0  0  0  0  0  0  0  0
  -12.2995   -4.7067    2.7789 H   0  0  0  0  0  0  0  0  0  0  0  0
  -11.2346   -3.7778   -0.7109 H   0  0  0  0  0  0  0  0  0  0  0  0
   -9.3735   -5.8366   -0.7544 H   0  0  0  0  0  0  0  0  0  0  0  0
   -9.1595   -4.6007    2.0689 H   0  0  0  0  0  0  0  0  0  0  0  0
   -7.7906   -4.7848    0.8873 H   0  0  0  0  0  0  0  0  0  0  0  0
   -9.1490   -3.6885    0.5092 H   0  0  0  0  0  0  0  0  0  0  0  0
   -9.7599   -7.3258    1.8704 H   0  0  0  0  0  0  0  0  0  0  0  0
   -6.5924   -8.8150   -0.3686 H   0  0  0  0  0  0  0  0  0  0  0  0
   -6.4430   -7.4879   -2.2714 H   0  0  0  0  0  0  0  0  0  0  0  0
   -7.1297   -6.0264   -1.4621 H   0  0  0  0  0  0  0  0  0  0  0  0
   -8.1873   -7.3703   -2.0662 H   0  0  0  0  0  0  0  0  0  0  0  0
   -6.7660   -6.6995    1.6115 H   0  0  0  0  0  0  0  0  0  0  0  0
  1  2  1  0
  2  3  2  0
  2  4  1  0
  4  5  1  0
  5  6  1  0
  6  7  1  0
  7  8  1  0
  8  9  1  0
  9 10  2  0
 10 11  1  0
 11 12  2  0
 12 13  1  0
 13 14  2  0
 13 15  1  0
 15 16  1  0
 16 17  1  0
 17 18  1  0
 18 19  1  0
 19 20  1  0
 19 21  2  0
 18 22  1  0
 22 23  1  0
 23 24  2  0
 23 25  1  0
 25 26  1  0
 25 27  1  0
 27 28  1  0
 28 29  2  0
 28 30  1  0
 30 31  1  0
 30 32  1  0
 32 33  1  0
 33 34  2  0
 33 35  1  0
 35 36  1  0
 35 37  1  0
 37 38  1  0
 38 39  2  0
 38 40  1  0
 40 41  1  0
 40 42  1  0
 42 43  1  0
 43 44  2  0
 43 45  1  0
 45 46  1  0
 45 47  1  0
 47 48  1  0
 48 49  2  0
 48 50  1  0
 50 51  1  0
 50 52  1  0
 52 53  1  0
 53 54  2  0
 53 55  1  0
 55 56  1  0
 55 57  1  0
 57 58  1  0
 58 59  2  0
 58 60  1  0
 60 61  1  0
 60 62  1  0
 62 63  1  0
 63 64  2  0
 63 65  1  0
 65 66  1  0
 65 67  1  0
 67 68  1  0
 68 69  2  0
 68 70  1  0
 70 71  1  0
 70 72  1  0
 72 73  1  0
 73 74  2  0
 73 75  1  0
 75 76  1  0
 76 77  1  0
 77 78  1  0
 75 79  1  0
 79 80  1  0
 80 81  2  0
 80 82  1  0
 82 83  1  0
 82 84  1  0
 84 85  1  0
 85 86  2  0
 85 87  1  0
 87 88  1  0
 87 89  1  0
 89 90  1  0
 90 91  2  0
 90 92  1  0
 92 93  1  0
 92 94  1  0
 94 95  1  0
 95 96  2  0
 95 97  1  0
 97 98  1  0
 97 99  1  0
 99100  1  0
100101  2  0
100102  1  0
102103  1  0
102104  1  0
104105  1  0
105106  2  0
105107  1  0
107108  1  0
107109  1  0
109110  1  0
110111  2  0
110112  1  0
112113  1  0
112114  1  0
114115  1  0
115116  2  0
115117  1  0
117118  1  0
117119  1  0
119120  1  0
120121  2  0
120122  1  0
122123  1  0
122124  1  0
124125  1  0
125126  2  0
125127  1  0
127128  1  0
127129  1  0
129130  1  0
130131  2  0
130  5  1  0
 14  9  1  0
 78 11  1  0
  1132  1  0
  1133  1  0
  1134  1  0
  4135  1  0
  5136  1  6
  6137  1  0
  6138  1  0
  8139  1  0
  8140  1  0
 10141  1  0
 12142  1  0
 14143  1  0
 15144  1  0
 15145  1  0
 17146  1  0
 17147  1  0
 18148  1  1
 20149  1  0
 20150  1  0
 22151  1  0
 25152  1  1
 26153  1  0
 26154  1  0
 26155  1  0
 27156  1  0
 30157  1  1
 31158  1  0
 31159  1  0
 31160  1  0
 32161  1  0
 35162  1  1
 36163  1  0
 36164  1  0
 36165  1  0
 37166  1  0
 40167  1  1
 41168  1  0
 41169  1  0
 41170  1  0
 42171  1  0
 45172  1  1
 46173  1  0
 46174  1  0
 46175  1  0
 47176  1  0
 50177  1  1
 51178  1  0
 51179  1  0
 51180  1  0
 52181  1  0
 55182  1  1
 56183  1  0
 56184  1  0
 56185  1  0
 57186  1  0
 60187  1  6
 61188  1  0
 61189  1  0
 61190  1  0
 62191  1  0
 65192  1  1
 66193  1  0
 66194  1  0
 66195  1  0
 67196  1  0
 70197  1  1
 71198  1  0
 71199  1  0
 71200  1  0
 72201  1  0
 75202  1  6
 76203  1  0
 76204  1  0
 78205  1  0
 78206  1  0
 79207  1  0
 82208  1  6
 83209  1  0
 83210  1  0
 83211  1  0
 84212  1  0
 87213  1  1
 88214  1  0
 88215  1  0
 88216  1  0
 89217  1  0
 92218  1  1
 93219  1  0
 93220  1  0
 93221  1  0
 94222  1  0
 97223  1  1
 98224  1  0
 98225  1  0
 98226  1  0
 99227  1  0
102228  1  1
103229  1  0
103230  1  0
103231  1  0
104232  1  0
107233  1  6
108234  1  0
108235  1  0
108236  1  0
109237  1  0
112238  1  6
113239  1  0
113240  1  0
113241  1  0
114242  1  0
117243  1  1
118244  1  0
118245  1  0
118246  1  0
119247  1  0
122248  1  6
123249  1  0
123250  1  0
123251  1  0
124252  1  0
127253  1  6
128254  1  0
128255  1  0
128256  1  0
129257  1  0
M  END
