
     RDKit          3D

207209  0  0  0  0  0  0  0  0999 V2000
   -0.1579    9.9327    2.8367 C   0  0  0  0  0  0  0  0  0  0  0  0
   -0.1532    8.6346    2.0974 C   0  0  0  0  0  0  0  0  0  0  0  0
   -1.2402    8.0074    1.9497 O   0  0  0  0  0  0  0  0  0  0  0  0
    1.0690    8.1160    1.5447 N   0  0  0  0  0  0  0  0  0  0  0  0
    1.0946    6.9516    0.6421 C   0  0  2  0  0  0  0  0  0  0  0  0
    0.9486    5.6282    1.4296 C   0  0  0  0  0  0  0  0  0  0  0  0
    0.1257    4.3211    0.4398 S   0  0  0  0  0  0  0  0  0  0  0  0
   -1.5954    4.9059    0.6801 C   0  0  0  0  0  0  0  0  0  0  0  0
   -2.5845    3.7886    0.4539 C   0  0  0  0  0  0  0  0  0  0  0  0
   -3.5637    3.8937   -0.5512 C   0  0  0  0  0  0  0  0  0  0  0  0
   -4.5124    2.8687   -0.7293 C   0  0  0  0  0  0  0  0  0  0  0  0
   -4.5096    1.7642    0.1375 C   0  0  0  0  0  0  0  0  0  0  0  0
   -3.5399    1.6516    1.1528 C   0  0  0  0  0  0  0  0  0  0  0  0
   -2.5631    2.6577    1.2868 C   0  0  0  0  0  0  0  0  0  0  0  0
   -3.5338    0.4550    2.0577 C   0  0  0  0  0  0  0  0  0  0  0  0
   -2.4016   -0.8272    1.4114 S   0  0  0  0  0  0  0  0  0  0  0  0
   -3.6599   -1.7348    0.4368 C   0  0  0  0  0  0  0  0  0  0  0  0
   -3.0932   -3.0629   -0.0856 C   0  0  2  0  0  0  0  0  0  0  0  0
   -1.9920   -2.8267   -1.0343 N   0  0  0  0  0  0  0  0  0  0  0  0
   -1.1149   -3.8497   -1.5462 C   0  0  0  0  0  0  0  0  0  0  0  0
   -0.2331   -3.5231   -2.3852 O   0  0  0  0  0  0  0  0  0  0  0  0
   -1.1777   -5.2913   -1.0792 C   0  0  1  0  0  0  0  0  0  0  0  0
   -1.2367   -6.2607   -2.2667 C   0  0  0  0  0  0  0  0  0  0  0  0
   -0.0537   -5.6058   -0.1866 N   0  0  0  0  0  0  0  0  0  0  0  0
    1.2542   -5.9668   -0.6637 C   0  0  0  0  0  0  0  0  0  0  0  0
    1.8816   -5.1822   -1.4333 O   0  0  0  0  0  0  0  0  0  0  0  0
    1.8958   -7.2757   -0.2744 C   0  0  1  0  0  0  0  0  0  0  0  0
    0.9907   -8.1337    0.6308 C   0  0  0  0  0  0  0  0  0  0  0  0
    2.2066   -8.0300   -1.4911 N   0  0  0  0  0  0  0  0  0  0  0  0
    3.5201   -8.3821   -1.9586 C   0  0  0  0  0  0  0  0  0  0  0  0
    3.6576   -8.7072   -3.1681 O   0  0  0  0  0  0  0  0  0  0  0  0
    4.7222   -8.4473   -1.0392 C   0  0  1  0  0  0  0  0  0  0  0  0
    4.5554   -9.6058   -0.0470 C   0  0  0  0  0  0  0  0  0  0  0  0
    5.9673   -8.6443   -1.7963 N   0  0  0  0  0  0  0  0  0  0  0  0
    7.2607   -8.1369   -1.4146 C   0  0  0  0  0  0  0  0  0  0  0  0
    8.2919   -8.7142   -1.8620 O   0  0  0  0  0  0  0  0  0  0  0  0
    7.4249   -6.9476   -0.4869 C   0  0  1  0  0  0  0  0  0  0  0  0
    7.3462   -7.3849    0.9773 C   0  0  0  0  0  0  0  0  0  0  0  0
    8.7358   -6.3076   -0.7095 N   0  0  0  0  0  0  0  0  0  0  0  0
    8.8618   -4.8746   -0.8230 C   0  0  0  0  0  0  0  0  0  0  0  0
    7.9606   -4.2187   -1.4042 O   0  0  0  0  0  0  0  0  0  0  0  0
    9.9725   -4.1274   -0.1051 C   0  0  1  0  0  0  0  0  0  0  0  0
   11.2302   -4.9650    0.1369 C   0  0  0  0  0  0  0  0  0  0  0  0
   10.3452   -2.9202   -0.8581 N   0  0  0  0  0  0  0  0  0  0  0  0
    9.7517   -1.6398   -0.5757 C   0  0  0  0  0  0  0  0  0  0  0  0
    8.8161   -1.2231   -1.3042 O   0  0  0  0  0  0  0  0  0  0  0  0
   10.3136   -0.7186    0.4860 C   0  0  1  0  0  0  0  0  0  0  0  0
   10.5276   -1.4317    1.8228 C   0  0  0  0  0  0  0  0  0  0  0  0
   11.5893   -0.1543    0.0259 N   0  0  0  0  0  0  0  0  0  0  0  0
   11.9169    1.2456   -0.0061 C   0  0  0  0  0  0  0  0  0  0  0  0
   12.9448    1.6020   -0.6505 O   0  0  0  0  0  0  0  0  0  0  0  0
   11.0662    2.3006    0.6728 C   0  0  1  0  0  0  0  0  0  0  0  0
   11.9033    3.4487    1.2494 C   0  0  0  0  0  0  0  0  0  0  0  0
   10.0390    2.8140   -0.2449 N   0  0  0  0  0  0  0  0  0  0  0  0
   10.3265    3.6992   -1.3412 C   0  0  0  0  0  0  0  0  0  0  0  0
   11.4311    3.6152   -1.9432 O   0  0  0  0  0  0  0  0  0  0  0  0
    9.3736    4.8289   -1.6667 C   0  0  1  0  0  0  0  0  0  0  0  0
    9.5010    5.2815   -3.1274 C   0  0  0  0  0  0  0  0  0  0  0  0
    7.9841    4.4323   -1.4105 N   0  0  0  0  0  0  0  0  0  0  0  0
    7.0336    5.2193   -0.6770 C   0  0  0  0  0  0  0  0  0  0  0  0
    5.8164    5.1518   -1.0030 O   0  0  0  0  0  0  0  0  0  0  0  0
    7.4691    6.1743    0.4188 C   0  0  1  0  0  0  0  0  0  0  0  0
    7.6096    7.5953   -0.1362 C   0  0  0  0  0  0  0  0  0  0  0  0
    6.5837    6.1803    1.5988 N   0  0  0  0  0  0  0  0  0  0  0  0
    5.1688    5.9502    1.6041 C   0  0  0  0  0  0  0  0  0  0  0  0
    4.7348    4.7659    1.6516 O   0  0  0  0  0  0  0  0  0  0  0  0
    4.1790    7.0923    1.5952 C   0  0  1  0  0  0  0  0  0  0  0  0
    4.7940    8.4041    2.1038 C   0  0  0  0  0  0  0  0  0  0  0  0
    3.6645    7.2698    0.2303 N   0  0  0  0  0  0  0  0  0  0  0  0
    2.3314    6.9615   -0.2350 C   0  0  0  0  0  0  0  0  0  0  0  0
    2.1747    6.7636   -1.4707 O   0  0  0  0  0  0  0  0  0  0  0  0
   -4.1953   -3.8474   -0.7591 C   0  0  0  0  0  0  0  0  0  0  0  0
   -4.6159   -3.4870   -1.8920 O   0  0  0  0  0  0  0  0  0  0  0  0
   -4.7346   -5.0328   -0.1565 N   0  0  0  0  0  0  0  0  0  0  0  0
   -5.3508   -5.0484    1.1769 C   0  0  2  0  0  0  0  0  0  0  0  0
   -4.2985   -5.2909    2.2737 C   0  0  0  0  0  0  0  0  0  0  0  0
   -6.4231   -6.1104    1.2378 C   0  0  0  0  0  0  0  0  0  0  0  0
   -6.0637   -7.3236    1.1888 O   0  0  0  0  0  0  0  0  0  0  0  0
   -7.8304   -5.8214    1.3655 N   0  0  0  0  0  0  0  0  0  0  0  0
   -8.5043   -4.5520    1.0469 C   0  0  2  0  0  0  0  0  0  0  0  0
   -8.0315   -4.0024   -0.3134 C   0  0  0  0  0  0  0  0  0  0  0  0
   -8.3866   -3.5678    2.2066 C   0  0  0  0  0  0  0  0  0  0  0  0
   -7.5687   -3.8271    3.1285 O   0  0  0  0  0  0  0  0  0  0  0  0
   -9.2370   -2.4131    2.3822 N   0  0  0  0  0  0  0  0  0  0  0  0
  -10.1205   -1.7513    1.4030 C   0  0  2  0  0  0  0  0  0  0  0  0
  -11.2077   -2.7181    0.8919 C   0  0  0  0  0  0  0  0  0  0  0  0
   -9.3233   -1.0683    0.3121 C   0  0  0  0  0  0  0  0  0  0  0  0
   -8.0734   -0.9529    0.4494 O   0  0  0  0  0  0  0  0  0  0  0  0
   -9.9353   -0.5015   -0.8612 N   0  0  0  0  0  0  0  0  0  0  0  0
  -11.2589    0.1244   -0.8701 C   0  0  2  0  0  0  0  0  0  0  0  0
  -12.0661   -0.4473   -2.0441 C   0  0  0  0  0  0  0  0  0  0  0  0
  -11.1261    1.6272   -0.9442 C   0  0  0  0  0  0  0  0  0  0  0  0
  -11.7490    2.2754   -1.8248 O   0  0  0  0  0  0  0  0  0  0  0  0
  -10.3596    2.3250    0.0566 N   0  0  0  0  0  0  0  0  0  0  0  0
  -10.7238    3.6515    0.5754 C   0  0  2  0  0  0  0  0  0  0  0  0
  -12.1086    3.6049    1.2421 C   0  0  0  0  0  0  0  0  0  0  0  0
  -10.6426    4.6863   -0.5197 C   0  0  0  0  0  0  0  0  0  0  0  0
  -11.6601    4.9748   -1.2099 O   0  0  0  0  0  0  0  0  0  0  0  0
   -9.3907    5.3600   -0.7542 N   0  0  0  0  0  0  0  0  0  0  0  0
   -8.7424    5.5061   -2.0645 C   0  0  2  0  0  0  0  0  0  0  0  0
   -9.5029    4.8334   -3.1989 C   0  0  0  0  0  0  0  0  0  0  0  0
  -10.6406    5.4691   -3.7956 N   0  0  0  0  0  0  0  0  0  0  0  0
   -9.1431    3.6972   -3.6301 O   0  0  0  0  0  0  0  0  0  0  0  0
   -7.2828    5.0073   -1.9888 C   0  0  0  0  0  0  0  0  0  0  0  0
   -7.1802    3.3248   -1.2616 S   0  0  0  0  0  0  0  0  0  0  0  0
   -5.4976    2.9243   -1.8627 C   0  0  0  0  0  0  0  0  0  0  0  0
   -0.6155    9.7898    3.8413 H   0  0  0  0  0  0  0  0  0  0  0  0
   -0.7514   10.6863    2.2747 H   0  0  0  0  0  0  0  0  0  0  0  0
    0.8760   10.3203    2.9642 H   0  0  0  0  0  0  0  0  0  0  0  0
    1.9125    8.7202    1.6298 H   0  0  0  0  0  0  0  0  0  0  0  0
    0.2206    7.0451   -0.0343 H   0  0  0  0  0  0  0  0  0  0  0  0
    0.3875    5.7833    2.3708 H   0  0  0  0  0  0  0  0  0  0  0  0
    1.9454    5.2265    1.7210 H   0  0  0  0  0  0  0  0  0  0  0  0
   -1.7892    5.7467   -0.0211 H   0  0  0  0  0  0  0  0  0  0  0  0
   -1.7404    5.2770    1.7171 H   0  0  0  0  0  0  0  0  0  0  0  0
   -3.5891    4.7708   -1.1994 H   0  0  0  0  0  0  0  0  0  0  0  0
   -5.2521    0.9823    0.0143 H   0  0  0  0  0  0  0  0  0  0  0  0
   -1.8093    2.5691    2.0563 H   0  0  0  0  0  0  0  0  0  0  0  0
   -4.5648    0.0528    2.1815 H   0  0  0  0  0  0  0  0  0  0  0  0
   -3.1933    0.7540    3.0709 H   0  0  0  0  0  0  0  0  0  0  0  0
   -4.5310   -1.9544    1.0806 H   0  0  0  0  0  0  0  0  0  0  0  0
   -4.0005   -1.1091   -0.4136 H   0  0  0  0  0  0  0  0  0  0  0  0
   -2.6918   -3.6294    0.7827 H   0  0  0  0  0  0  0  0  0  0  0  0
   -1.7886   -1.8453   -1.3278 H   0  0  0  0  0  0  0  0  0  0  0  0
   -2.1003   -5.4640   -0.5083 H   0  0  0  0  0  0  0  0  0  0  0  0
   -1.2709   -7.3073   -1.8956 H   0  0  0  0  0  0  0  0  0  0  0  0
   -0.3521   -6.1492   -2.9307 H   0  0  0  0  0  0  0  0  0  0  0  0
   -2.1606   -6.0727   -2.8595 H   0  0  0  0  0  0  0  0  0  0  0  0
   -0.2540   -5.7029    0.8379 H   0  0  0  0  0  0  0  0  0  0  0  0
    2.8139   -7.0464    0.3003 H   0  0  0  0  0  0  0  0  0  0  0  0
    0.0003   -8.3042    0.1586 H   0  0  0  0  0  0  0  0  0  0  0  0
    0.8339   -7.6236    1.6101 H   0  0  0  0  0  0  0  0  0  0  0  0
    1.4584   -9.1236    0.8300 H   0  0  0  0  0  0  0  0  0  0  0  0
    1.4056   -8.2363   -2.1317 H   0  0  0  0  0  0  0  0  0  0  0  0
    4.7856   -7.4950   -0.4812 H   0  0  0  0  0  0  0  0  0  0  0  0
    4.3162  -10.5500   -0.5806 H   0  0  0  0  0  0  0  0  0  0  0  0
    3.7439   -9.3846    0.6716 H   0  0  0  0  0  0  0  0  0  0  0  0
    5.4851   -9.7638    0.5373 H   0  0  0  0  0  0  0  0  0  0  0  0
    5.9742   -9.4253   -2.4982 H   0  0  0  0  0  0  0  0  0  0  0  0
    6.6225   -6.2200   -0.6930 H   0  0  0  0  0  0  0  0  0  0  0  0
    7.9882   -8.2715    1.1598 H   0  0  0  0  0  0  0  0  0  0  0  0
    6.3060   -7.6296    1.2588 H   0  0  0  0  0  0  0  0  0  0  0  0
    7.6788   -6.5551    1.6384 H   0  0  0  0  0  0  0  0  0  0  0  0
    9.5773   -6.8758   -0.4820 H   0  0  0  0  0  0  0  0  0  0  0  0
    9.5701   -3.8375    0.8841 H   0  0  0  0  0  0  0  0  0  0  0  0
   12.0571   -4.3220    0.5108 H   0  0  0  0  0  0  0  0  0  0  0  0
   11.0302   -5.7261    0.9261 H   0  0  0  0  0  0  0  0  0  0  0  0
   11.5594   -5.4702   -0.8004 H   0  0  0  0  0  0  0  0  0  0  0  0
   10.7533   -3.0469   -1.8114 H   0  0  0  0  0  0  0  0  0  0  0  0
    9.5737    0.0808    0.6530 H   0  0  0  0  0  0  0  0  0  0  0  0
   10.8901   -0.7003    2.5765 H   0  0  0  0  0  0  0  0  0  0  0  0
    9.5702   -1.8632    2.1848 H   0  0  0  0  0  0  0  0  0  0  0  0
   11.2944   -2.2271    1.7172 H   0  0  0  0  0  0  0  0  0  0  0  0
   12.3213   -0.8248   -0.3014 H   0  0  0  0  0  0  0  0  0  0  0  0
   10.5588    1.8365    1.5483 H   0  0  0  0  0  0  0  0  0  0  0  0
   12.5860    3.0701    2.0427 H   0  0  0  0  0  0  0  0  0  0  0  0
   11.2312    4.2122    1.6973 H   0  0  0  0  0  0  0  0  0  0  0  0
   12.5131    3.9329    0.4607 H   0  0  0  0  0  0  0  0  0  0  0  0
    9.0939    2.3683   -0.2054 H   0  0  0  0  0  0  0  0  0  0  0  0
    9.6783    5.6891   -1.0323 H   0  0  0  0  0  0  0  0  0  0  0  0
   10.5196    5.6732   -3.3285 H   0  0  0  0  0  0  0  0  0  0  0  0
    8.7826    6.1019   -3.3388 H   0  0  0  0  0  0  0  0  0  0  0  0
    9.2992    4.4387   -3.8230 H   0  0  0  0  0  0  0  0  0  0  0  0
    7.6109    3.6308   -1.9754 H   0  0  0  0  0  0  0  0  0  0  0  0
    8.4715    5.8631    0.7798 H   0  0  0  0  0  0  0  0  0  0  0  0
    6.6437    7.9645   -0.5375 H   0  0  0  0  0  0  0  0  0  0  0  0
    7.9585    8.2881    0.6625 H   0  0  0  0  0  0  0  0  0  0  0  0
    8.3360    7.6212   -0.9684 H   0  0  0  0  0  0  0  0  0  0  0  0
    7.0433    6.2559    2.5360 H   0  0  0  0  0  0  0  0  0  0  0  0
    3.3543    6.8430    2.2912 H   0  0  0  0  0  0  0  0  0  0  0  0
    5.1484    8.2761    3.1519 H   0  0  0  0  0  0  0  0  0  0  0  0
    5.6448    8.7276    1.4699 H   0  0  0  0  0  0  0  0  0  0  0  0
    4.0473    9.2163    2.0895 H   0  0  0  0  0  0  0  0  0  0  0  0
    4.3601    7.5188   -0.5056 H   0  0  0  0  0  0  0  0  0  0  0  0
   -4.9879   -5.8011   -0.8158 H   0  0  0  0  0  0  0  0  0  0  0  0
   -5.7990   -4.0541    1.3786 H   0  0  0  0  0  0  0  0  0  0  0  0
   -3.7843   -4.3477    2.5467 H   0  0  0  0  0  0  0  0  0  0  0  0
   -4.7901   -5.6631    3.2060 H   0  0  0  0  0  0  0  0  0  0  0  0
   -3.5474   -6.0536    1.9438 H   0  0  0  0  0  0  0  0  0  0  0  0
   -8.4547   -6.6443    1.5554 H   0  0  0  0  0  0  0  0  0  0  0  0
   -9.5755   -4.7983    0.9448 H   0  0  0  0  0  0  0  0  0  0  0  0
   -7.7374   -4.8354   -0.9794 H   0  0  0  0  0  0  0  0  0  0  0  0
   -8.8407   -3.4554   -0.8208 H   0  0  0  0  0  0  0  0  0  0  0  0
   -7.1748   -3.3098   -0.1965 H   0  0  0  0  0  0  0  0  0  0  0  0
   -9.1779   -1.9398    3.3124 H   0  0  0  0  0  0  0  0  0  0  0  0
  -10.6543   -0.9356    1.9437 H   0  0  0  0  0  0  0  0  0  0  0  0
  -10.9343   -3.1856   -0.0746 H   0  0  0  0  0  0  0  0  0  0  0  0
  -12.1694   -2.1846    0.7454 H   0  0  0  0  0  0  0  0  0  0  0  0
  -11.4083   -3.5079    1.6448 H   0  0  0  0  0  0  0  0  0  0  0  0
   -9.3165   -0.3488   -1.6973 H   0  0  0  0  0  0  0  0  0  0  0  0
  -11.8101   -0.0893    0.0611 H   0  0  0  0  0  0  0  0  0  0  0  0
  -13.0789    0.0084   -2.0841 H   0  0  0  0  0  0  0  0  0  0  0  0
  -12.1982   -1.5440   -1.9203 H   0  0  0  0  0  0  0  0  0  0  0  0
  -11.5450   -0.2559   -3.0085 H   0  0  0  0  0  0  0  0  0  0  0  0
   -9.5457    1.8291    0.4942 H   0  0  0  0  0  0  0  0  0  0  0  0
   -9.9900    3.9236    1.3649 H   0  0  0  0  0  0  0  0  0  0  0  0
  -12.8849    3.2826    0.5222 H   0  0  0  0  0  0  0  0  0  0  0  0
  -12.3769    4.6066    1.6328 H   0  0  0  0  0  0  0  0  0  0  0  0
  -12.0857    2.8962    2.0967 H   0  0  0  0  0  0  0  0  0  0  0  0
   -8.8734    5.7113    0.0930 H   0  0  0  0  0  0  0  0  0  0  0  0
   -8.7055    6.5891   -2.3039 H   0  0  0  0  0  0  0  0  0  0  0  0
  -11.1670    4.9946   -4.5608 H   0  0  0  0  0  0  0  0  0  0  0  0
  -11.0045    6.3795   -3.4243 H   0  0  0  0  0  0  0  0  0  0  0  0
   -6.6901    5.6923   -1.3479 H   0  0  0  0  0  0  0  0  0  0  0  0
   -6.8481    5.0312   -3.0091 H   0  0  0  0  0  0  0  0  0  0  0  0
   -5.1544    3.6283   -2.6530 H   0  0  0  0  0  0  0  0  0  0  0  0
   -5.5389    1.9257   -2.3507 H   0  0  0  0  0  0  0  0  0  0  0  0
  1  2  1  0
  2  3  2  0
  2  4  1  0
  4  5  1  0
  5  6  1  0
  6  7  1  0
  7  8  1  0
  8  9  1  0
  9 10  2  0
 10 11  1  0
 11 12  2  0
 12 13  1  0
 13 14  2  0
 13 15  1  0
 15 16  1  0
 16 17  1  0
 17 18  1  0
 18 19  1  0
 19 20  1  0
 20 21  2  0
 20 22  1  0
 22 23  1  0
 22 24  1  0
 24 25  1  0
 25 26  2  0
 25 27  1  0
 27 28  1  0
 27 29  1  0
 29 30  1  0
 30 31  2  0
 30 32  1  0
 32 33  1  0
 32 34  1  0
 34 35  1  0
 35 36  2  0
 35 37  1  0
 37 38  1  0
 37 39  1  0
 39 40  1  0
 40 41  2  0
 40 42  1  0
 42 43  1  0
 42 44  1  0
 44 45  1  0
 45 46  2  0
 45 47  1  0
 47 48  1  0
 47 49  1  0
 49 50  1  0
 50 51  2  0
 50 52  1  0
 52 53  1  0
 52 54  1  0
 54 55  1  0
 55 56  2  0
 55 57  1  0
 57 58  1  0
 57 59  1  0
 59 60  1  0
 60 61  2  0
 60 62  1  0
 62 63  1  0
 62 64  1  0
 64 65  1  0
 65 66  2  0
 65 67  1  0
 67 68  1  0
 67 69  1  0
 69 70  1  0
 70 71  2  0
 18 72  1  0
 72 73  2  0
 72 74  1  0
 74 75  1  0
 75 76  1  0
 75 77  1  0
 77 78  2  0
 77 79  1  0
 79 80  1  0
 80 81  1  0
 80 82  1  0
 82 83  2  0
 82 84  1  0
 84 85  1  0
 85 86  1  0
 85 87  1  0
 87 88  2  0
 87 89  1  0
 89 90  1  0
 90 91  1  0
 90 92  1  0
 92 93  2  0
 92 94  1  0
 94 95  1  0
 95 96  1  0
 95 97  1  0
 97 98  2  0
 97 99  1  0
 99100  1  0
100101  1  0
101102  1  0
101103  2  0
100104  1  0
104105  1  0
105106  1  0
 70  5  1  0
 14  9  1  0
106 11  1  0
  1107  1  0
  1108  1  0
  1109  1  0
  4110  1  0
  5111  1  6
  6112  1  0
  6113  1  0
  8114  1  0
  8115  1  0
 10116  1  0
 12117  1  0
 14118  1  0
 15119  1  0
 15120  1  0
 17121  1  0
 17122  1  0
 18123  1  1
 19124  1  0
 22125  1  1
 23126  1  0
 23127  1  0
 23128  1  0
 24129  1  0
 27130  1  1
 28131  1  0
 28132  1  0
 28133  1  0
 29134  1  0
 32135  1  1
 33136  1  0
 33137  1  0
 33138  1  0
 34139  1  0
 37140  1  6
 38141  1  0
 38142  1  0
 38143  1  0
 39144  1  0
 42145  1  1
 43146  1  0
 43147  1  0
 43148  1  0
 44149  1  0
 47150  1  1
 48151  1  0
 48152  1  0
 48153  1  0
 49154  1  0
 52155  1  1
 53156  1  0
 53157  1  0
 53158  1  0
 54159  1  0
 57160  1  1
 58161  1  0
 58162  1  0
 58163  1  0
 59164  1  0
 62165  1  1
 63166  1  0
 63167  1  0
 63168  1  0
 64169  1  0
 67170  1  1
 68171  1  0
 68172  1  0
 68173  1  0
 69174  1  0
 74175  1  0
 75176  1  1
 76177  1  0
 76178  1  0
 76179  1  0
 79180  1  0
 80181  1  6
 81182  1  0
 81183  1  0
 81184  1  0
 84185  1  0
 85186  1  1
 86187  1  0
 86188  1  0
 86189  1  0
 89190  1  0
 90191  1  1
 91192  1  0
 91193  1  0
 91194  1  0
 94195  1  0
 95196  1  1
 96197  1  0
 96198  1  0
 96199  1  0
 99200  1  0
100201  1  6
102202  1  0
102203  1  0
104204  1  0
104205  1  0
106206  1  0
106207  1  0
M  END
