
     RDKit          3D

187189  0  0  0  0  0  0  0  0999 V2000
   -1.4583    9.8824    0.9458 C   0  0  0  0  0  0  0  0  0  0  0  0
   -0.8427    8.5603    1.2548 C   0  0  0  0  0  0  0  0  0  0  0  0
   -1.1369    7.9671    2.3294 O   0  0  0  0  0  0  0  0  0  0  0  0
    0.0621    7.9628    0.3137 N   0  0  0  0  0  0  0  0  0  0  0  0
    0.5467    6.5841    0.4317 C   0  0  1  0  0  0  0  0  0  0  0  0
    0.1701    5.7873   -0.8282 C   0  0  0  0  0  0  0  0  0  0  0  0
   -1.6474    5.6491   -1.0079 S   0  0  0  0  0  0  0  0  0  0  0  0
   -1.8852    4.2705    0.1654 C   0  0  0  0  0  0  0  0  0  0  0  0
   -2.9258    3.3370   -0.3833 C   0  0  0  0  0  0  0  0  0  0  0  0
   -4.2888    3.6716   -0.3167 C   0  0  0  0  0  0  0  0  0  0  0  0
   -5.2579    2.8024   -0.8401 C   0  0  0  0  0  0  0  0  0  0  0  0
   -4.8608    1.5869   -1.4099 C   0  0  0  0  0  0  0  0  0  0  0  0
   -3.5112    1.2183   -1.4333 C   0  0  0  0  0  0  0  0  0  0  0  0
   -2.5409    2.1193   -0.9601 C   0  0  0  0  0  0  0  0  0  0  0  0
   -3.1193   -0.1646   -1.8712 C   0  0  0  0  0  0  0  0  0  0  0  0
   -2.1331   -1.0243   -0.5855 S   0  0  0  0  0  0  0  0  0  0  0  0
   -3.4054   -1.0744    0.7494 C   0  0  0  0  0  0  0  0  0  0  0  0
   -4.3738   -2.2949    0.8186 C   0  0  2  0  0  0  0  0  0  0  0  0
   -4.0966   -3.1560    1.9811 N   0  0  0  0  0  0  0  0  0  0  0  0
   -3.1668   -4.2573    2.0124 C   0  0  0  0  0  0  0  0  0  0  0  0
   -3.4052   -5.2281    2.7795 O   0  0  0  0  0  0  0  0  0  0  0  0
   -1.8826   -4.2410    1.2344 C   0  0  1  0  0  0  0  0  0  0  0  0
   -0.6620   -4.1696    2.1579 C   0  0  0  0  0  0  0  0  0  0  0  0
   -1.8117   -5.3705    0.2997 N   0  0  0  0  0  0  0  0  0  0  0  0
   -1.2861   -6.6580    0.6539 C   0  0  0  0  0  0  0  0  0  0  0  0
   -1.6209   -7.2031    1.7455 O   0  0  0  0  0  0  0  0  0  0  0  0
   -0.3527   -7.3886   -0.2757 C   0  0  1  0  0  0  0  0  0  0  0  0
   -1.1308   -8.3628   -1.1604 C   0  0  0  0  0  0  0  0  0  0  0  0
    0.3876   -6.4374   -1.1184 N   0  0  0  0  0  0  0  0  0  0  0  0
    1.8014   -6.1662   -1.0585 C   0  0  0  0  0  0  0  0  0  0  0  0
    2.2922   -5.4057   -1.9347 O   0  0  0  0  0  0  0  0  0  0  0  0
    2.7242   -6.8537   -0.0745 C   0  0  1  0  0  0  0  0  0  0  0  0
    3.1038   -8.2318   -0.6413 C   0  0  0  0  0  0  0  0  0  0  0  0
    3.9392   -6.0633    0.1639 N   0  0  0  0  0  0  0  0  0  0  0  0
    5.0057   -6.5568    0.9892 C   0  0  0  0  0  0  0  0  0  0  0  0
    4.7304   -7.2579    1.9952 O   0  0  0  0  0  0  0  0  0  0  0  0
    6.4555   -6.2695    0.6437 C   0  0  1  0  0  0  0  0  0  0  0  0
    7.3103   -7.5235    0.8842 C   0  0  0  0  0  0  0  0  0  0  0  0
    6.5846   -5.8578   -0.7585 N   0  0  0  0  0  0  0  0  0  0  0  0
    7.5769   -4.9433   -1.2677 C   0  0  0  0  0  0  0  0  0  0  0  0
    7.3915   -4.4222   -2.4027 O   0  0  0  0  0  0  0  0  0  0  0  0
    8.8810   -4.6816   -0.5497 C   0  0  1  0  0  0  0  0  0  0  0  0
   10.0238   -5.3867   -1.2851 C   0  0  0  0  0  0  0  0  0  0  0  0
    9.1422   -3.2407   -0.4533 N   0  0  0  0  0  0  0  0  0  0  0  0
    8.4579   -2.4300    0.5166 C   0  0  0  0  0  0  0  0  0  0  0  0
    7.3369   -2.7947    0.9580 O   0  0  0  0  0  0  0  0  0  0  0  0
    9.1070   -1.2026    1.0911 C   0  0  1  0  0  0  0  0  0  0  0  0
   10.4199   -1.5633    1.7949 C   0  0  0  0  0  0  0  0  0  0  0  0
    9.3604   -0.1998    0.0536 N   0  0  0  0  0  0  0  0  0  0  0  0
    8.7239    1.0825    0.1183 C   0  0  0  0  0  0  0  0  0  0  0  0
    7.4662    1.1384    0.1907 O   0  0  0  0  0  0  0  0  0  0  0  0
    9.5190    2.3667    0.1731 C   0  0  1  0  0  0  0  0  0  0  0  0
   10.9994    2.1425    0.5220 C   0  0  0  0  0  0  0  0  0  0  0  0
    9.4052    3.0832   -1.0984 N   0  0  0  0  0  0  0  0  0  0  0  0
    9.3333    4.5193   -1.2182 C   0  0  0  0  0  0  0  0  0  0  0  0
    9.1851    5.0228   -2.3636 O   0  0  0  0  0  0  0  0  0  0  0  0
    9.4012    5.4320   -0.0090 C   0  0  1  0  0  0  0  0  0  0  0  0
   10.1160    6.7647   -0.3016 C   0  0  0  0  0  0  0  0  0  0  0  0
    8.0651    5.6544    0.5541 N   0  0  0  0  0  0  0  0  0  0  0  0
    7.0629    6.4941   -0.0585 C   0  0  0  0  0  0  0  0  0  0  0  0
    7.1748    6.8213   -1.2681 O   0  0  0  0  0  0  0  0  0  0  0  0
    5.8751    7.0265    0.7178 C   0  0  1  0  0  0  0  0  0  0  0  0
    5.9745    6.8040    2.2317 C   0  0  0  0  0  0  0  0  0  0  0  0
    5.7492    8.4659    0.4647 N   0  0  0  0  0  0  0  0  0  0  0  0
    4.6532    9.1287   -0.1983 C   0  0  0  0  0  0  0  0  0  0  0  0
    4.8138   10.3254   -0.5681 O   0  0  0  0  0  0  0  0  0  0  0  0
    3.3277    8.4700   -0.4971 C   0  0  1  0  0  0  0  0  0  0  0  0
    3.4197    7.5778   -1.7547 C   0  0  0  0  0  0  0  0  0  0  0  0
    2.8105    7.7681    0.6908 N   0  0  0  0  0  0  0  0  0  0  0  0
    2.0409    6.5601    0.6507 C   0  0  0  0  0  0  0  0  0  0  0  0
    2.6102    5.4608    0.8834 O   0  0  0  0  0  0  0  0  0  0  0  0
   -4.6308   -3.1291   -0.4171 C   0  0  0  0  0  0  0  0  0  0  0  0
   -3.7774   -3.2479   -1.3331 O   0  0  0  0  0  0  0  0  0  0  0  0
   -5.8257   -3.9152   -0.4808 N   0  0  0  0  0  0  0  0  0  0  0  0
   -7.0539   -3.4784   -1.1647 C   0  0  2  0  0  0  0  0  0  0  0  0
   -7.2954   -1.9679   -1.0388 C   0  0  0  0  0  0  0  0  0  0  0  0
   -8.2506   -4.2029   -0.6101 C   0  0  0  0  0  0  0  0  0  0  0  0
   -8.1634   -4.8332    0.4891 O   0  0  0  0  0  0  0  0  0  0  0  0
   -9.4957   -4.1687   -1.3076 N   0  0  0  0  0  0  0  0  0  0  0  0
  -10.7634   -3.9863   -0.5951 C   0  0  2  0  0  0  0  0  0  0  0  0
  -11.3676   -5.3458   -0.2253 C   0  0  0  0  0  0  0  0  0  0  0  0
  -11.7343   -3.2057   -1.4536 C   0  0  0  0  0  0  0  0  0  0  0  0
  -12.1032   -3.7079   -2.5489 O   0  0  0  0  0  0  0  0  0  0  0  0
  -12.2716   -1.9192   -1.0773 N   0  0  0  0  0  0  0  0  0  0  0  0
  -11.8908   -1.1371    0.1094 C   0  0  2  0  0  0  0  0  0  0  0  0
  -12.5545   -1.7098    1.3707 C   0  0  0  0  0  0  0  0  0  0  0  0
  -12.3555    0.3005   -0.0551 C   0  0  0  0  0  0  0  0  0  0  0  0
  -13.5723    0.5037   -0.3242 O   0  0  0  0  0  0  0  0  0  0  0  0
  -11.4883    1.4458    0.0492 N   0  0  0  0  0  0  0  0  0  0  0  0
  -10.1906    1.4955    0.7310 C   0  0  2  0  0  0  0  0  0  0  0  0
  -10.2894    2.3821    1.9481 C   0  0  0  0  0  0  0  0  0  0  0  0
  -10.6360    3.7661    1.8258 N   0  0  0  0  0  0  0  0  0  0  0  0
  -10.0334    1.9099    3.0861 O   0  0  0  0  0  0  0  0  0  0  0  0
   -9.1331    2.0170   -0.2532 C   0  0  0  0  0  0  0  0  0  0  0  0
   -7.4740    2.0192    0.5081 S   0  0  0  0  0  0  0  0  0  0  0  0
   -6.7208    3.1211   -0.7400 C   0  0  0  0  0  0  0  0  0  0  0  0
   -2.1121   10.2169    1.7850 H   0  0  0  0  0  0  0  0  0  0  0  0
   -2.0760    9.8015    0.0255 H   0  0  0  0  0  0  0  0  0  0  0  0
   -0.6614   10.6406    0.7917 H   0  0  0  0  0  0  0  0  0  0  0  0
    0.3156    8.5080   -0.5387 H   0  0  0  0  0  0  0  0  0  0  0  0
    0.0830    6.0841    1.3110 H   0  0  0  0  0  0  0  0  0  0  0  0
    0.5479    6.3096   -1.7313 H   0  0  0  0  0  0  0  0  0  0  0  0
    0.6395    4.7763   -0.8201 H   0  0  0  0  0  0  0  0  0  0  0  0
   -0.9431    3.7099    0.3441 H   0  0  0  0  0  0  0  0  0  0  0  0
   -2.2113    4.6737    1.1481 H   0  0  0  0  0  0  0  0  0  0  0  0
   -4.5939    4.6048    0.1357 H   0  0  0  0  0  0  0  0  0  0  0  0
   -5.6092    0.9096   -1.7924 H   0  0  0  0  0  0  0  0  0  0  0  0
   -1.4953    1.8519   -1.0120 H   0  0  0  0  0  0  0  0  0  0  0  0
   -2.5006   -0.0854   -2.7854 H   0  0  0  0  0  0  0  0  0  0  0  0
   -4.0137   -0.7730   -2.1155 H   0  0  0  0  0  0  0  0  0  0  0  0
   -2.8510   -1.0070    1.7056 H   0  0  0  0  0  0  0  0  0  0  0  0
   -4.0006   -0.1417    0.7194 H   0  0  0  0  0  0  0  0  0  0  0  0
   -5.3589   -1.8231    1.0377 H   0  0  0  0  0  0  0  0  0  0  0  0
   -4.7938   -3.1260    2.7619 H   0  0  0  0  0  0  0  0  0  0  0  0
   -1.8518   -3.3247    0.6305 H   0  0  0  0  0  0  0  0  0  0  0  0
    0.2681   -4.1941    1.5556 H   0  0  0  0  0  0  0  0  0  0  0  0
   -0.6803   -3.2228    2.7390 H   0  0  0  0  0  0  0  0  0  0  0  0
   -0.6449   -5.0158    2.8737 H   0  0  0  0  0  0  0  0  0  0  0  0
   -1.9287   -5.1582   -0.7130 H   0  0  0  0  0  0  0  0  0  0  0  0
    0.3348   -7.9942    0.3463 H   0  0  0  0  0  0  0  0  0  0  0  0
   -1.6452   -9.1297   -0.5343 H   0  0  0  0  0  0  0  0  0  0  0  0
   -0.4275   -8.8851   -1.8451 H   0  0  0  0  0  0  0  0  0  0  0  0
   -1.8868   -7.8168   -1.7619 H   0  0  0  0  0  0  0  0  0  0  0  0
   -0.1411   -5.9590   -1.8785 H   0  0  0  0  0  0  0  0  0  0  0  0
    2.2008   -6.9864    0.8995 H   0  0  0  0  0  0  0  0  0  0  0  0
    3.7550   -8.1149   -1.5338 H   0  0  0  0  0  0  0  0  0  0  0  0
    3.6450   -8.8300    0.1224 H   0  0  0  0  0  0  0  0  0  0  0  0
    2.1999   -8.8075   -0.9347 H   0  0  0  0  0  0  0  0  0  0  0  0
    4.0621   -5.1202   -0.2763 H   0  0  0  0  0  0  0  0  0  0  0  0
    6.7976   -5.4532    1.3164 H   0  0  0  0  0  0  0  0  0  0  0  0
    8.3617   -7.3440    0.5828 H   0  0  0  0  0  0  0  0  0  0  0  0
    6.9213   -8.3792    0.2918 H   0  0  0  0  0  0  0  0  0  0  0  0
    7.3028   -7.7909    1.9618 H   0  0  0  0  0  0  0  0  0  0  0  0
    5.9693   -6.3189   -1.4687 H   0  0  0  0  0  0  0  0  0  0  0  0
    8.8616   -5.0898    0.4810 H   0  0  0  0  0  0  0  0  0  0  0  0
   10.9842   -5.1955   -0.7669 H   0  0  0  0  0  0  0  0  0  0  0  0
   10.1067   -5.0237   -2.3299 H   0  0  0  0  0  0  0  0  0  0  0  0
    9.8505   -6.4858   -1.2938 H   0  0  0  0  0  0  0  0  0  0  0  0
    9.9906   -2.8447   -0.9090 H   0  0  0  0  0  0  0  0  0  0  0  0
    8.4290   -0.7770    1.8670 H   0  0  0  0  0  0  0  0  0  0  0  0
   11.1777   -1.9241    1.0670 H   0  0  0  0  0  0  0  0  0  0  0  0
   10.2448   -2.3561    2.5521 H   0  0  0  0  0  0  0  0  0  0  0  0
   10.8306   -0.6709    2.3139 H   0  0  0  0  0  0  0  0  0  0  0  0
   10.1347   -0.3539   -0.6304 H   0  0  0  0  0  0  0  0  0  0  0  0
    9.0679    2.9622    0.9957 H   0  0  0  0  0  0  0  0  0  0  0  0
   11.5083    1.5520   -0.2703 H   0  0  0  0  0  0  0  0  0  0  0  0
   11.0941    1.6161    1.4939 H   0  0  0  0  0  0  0  0  0  0  0  0
   11.5192    3.1193    0.6040 H   0  0  0  0  0  0  0  0  0  0  0  0
    9.5216    2.5348   -1.9824 H   0  0  0  0  0  0  0  0  0  0  0  0
   10.0214    4.9475    0.7653 H   0  0  0  0  0  0  0  0  0  0  0  0
   10.0686    7.4209    0.5945 H   0  0  0  0  0  0  0  0  0  0  0  0
   11.1834    6.5719   -0.5387 H   0  0  0  0  0  0  0  0  0  0  0  0
    9.6613    7.3011   -1.1601 H   0  0  0  0  0  0  0  0  0  0  0  0
    7.8225    5.1228    1.4201 H   0  0  0  0  0  0  0  0  0  0  0  0
    4.9841    6.4806    0.3671 H   0  0  0  0  0  0  0  0  0  0  0  0
    5.1397    7.3330    2.7484 H   0  0  0  0  0  0  0  0  0  0  0  0
    5.8807    5.7234    2.4769 H   0  0  0  0  0  0  0  0  0  0  0  0
    6.9371    7.2041    2.6235 H   0  0  0  0  0  0  0  0  0  0  0  0
    6.5561    9.0634    0.7441 H   0  0  0  0  0  0  0  0  0  0  0  0
    2.6066    9.2811   -0.7296 H   0  0  0  0  0  0  0  0  0  0  0  0
    3.8237    6.5737   -1.5283 H   0  0  0  0  0  0  0  0  0  0  0  0
    2.4124    7.4733   -2.2013 H   0  0  0  0  0  0  0  0  0  0  0  0
    4.0713    8.0577   -2.5203 H   0  0  0  0  0  0  0  0  0  0  0  0
    2.9166    8.2312    1.6236 H   0  0  0  0  0  0  0  0  0  0  0  0
   -5.6824   -4.9438   -0.3712 H   0  0  0  0  0  0  0  0  0  0  0  0
   -6.9574   -3.7297   -2.2415 H   0  0  0  0  0  0  0  0  0  0  0  0
   -6.4370   -1.3918   -1.4352 H   0  0  0  0  0  0  0  0  0  0  0  0
   -8.1951   -1.6748   -1.6211 H   0  0  0  0  0  0  0  0  0  0  0  0
   -7.4643   -1.6828    0.0226 H   0  0  0  0  0  0  0  0  0  0  0  0
   -9.5005   -4.3554   -2.3386 H   0  0  0  0  0  0  0  0  0  0  0  0
  -10.5502   -3.4465    0.3452 H   0  0  0  0  0  0  0  0  0  0  0  0
  -11.5512   -5.9564   -1.1399 H   0  0  0  0  0  0  0  0  0  0  0  0
  -10.6750   -5.9071    0.4384 H   0  0  0  0  0  0  0  0  0  0  0  0
  -12.3302   -5.2023    0.3125 H   0  0  0  0  0  0  0  0  0  0  0  0
  -12.9044   -1.4790   -1.7827 H   0  0  0  0  0  0  0  0  0  0  0  0
  -10.7868   -1.1826    0.2039 H   0  0  0  0  0  0  0  0  0  0  0  0
  -12.3201   -1.0634    2.2438 H   0  0  0  0  0  0  0  0  0  0  0  0
  -12.1912   -2.7302    1.5987 H   0  0  0  0  0  0  0  0  0  0  0  0
  -13.6581   -1.7537    1.2395 H   0  0  0  0  0  0  0  0  0  0  0  0
  -11.8664    2.3446   -0.3273 H   0  0  0  0  0  0  0  0  0  0  0  0
   -9.8764    0.4907    1.0735 H   0  0  0  0  0  0  0  0  0  0  0  0
  -10.8806    4.1890    0.9067 H   0  0  0  0  0  0  0  0  0  0  0  0
  -10.6538    4.3816    2.6725 H   0  0  0  0  0  0  0  0  0  0  0  0
   -9.3993    3.0414   -0.5936 H   0  0  0  0  0  0  0  0  0  0  0  0
   -9.1007    1.3479   -1.1419 H   0  0  0  0  0  0  0  0  0  0  0  0
   -7.1802    2.9598   -1.7396 H   0  0  0  0  0  0  0  0  0  0  0  0
   -6.8868    4.1790   -0.4394 H   0  0  0  0  0  0  0  0  0  0  0  0
  1  2  1  0
  2  3  2  0
  2  4  1  0
  4  5  1  0
  5  6  1  0
  6  7  1  0
  7  8  1  0
  8  9  1  0
  9 10  2  0
 10 11  1  0
 11 12  2  0
 12 13  1  0
 13 14  2  0
 13 15  1  0
 15 16  1  0
 16 17  1  0
 17 18  1  0
 18 19  1  0
 19 20  1  0
 20 21  2  0
 20 22  1  0
 22 23  1  0
 22 24  1  0
 24 25  1  0
 25 26  2  0
 25 27  1  0
 27 28  1  0
 27 29  1  0
 29 30  1  0
 30 31  2  0
 30 32  1  0
 32 33  1  0
 32 34  1  0
 34 35  1  0
 35 36  2  0
 35 37  1  0
 37 38  1  0
 37 39  1  0
 39 40  1  0
 40 41  2  0
 40 42  1  0
 42 43  1  0
 42 44  1  0
 44 45  1  0
 45 46  2  0
 45 47  1  0
 47 48  1  0
 47 49  1  0
 49 50  1  0
 50 51  2  0
 50 52  1  0
 52 53  1  0
 52 54  1  0
 54 55  1  0
 55 56  2  0
 55 57  1  0
 57 58  1  0
 57 59  1  0
 59 60  1  0
 60 61  2  0
 60 62  1  0
 62 63  1  0
 62 64  1  0
 64 65  1  0
 65 66  2  0
 65 67  1  0
 67 68  1  0
 67 69  1  0
 69 70  1  0
 70 71  2  0
 18 72  1  0
 72 73  2  0
 72 74  1  0
 74 75  1  0
 75 76  1  0
 75 77  1  0
 77 78  2  0
 77 79  1  0
 79 80  1  0
 80 81  1  0
 80 82  1  0
 82 83  2  0
 82 84  1  0
 84 85  1  0
 85 86  1  0
 85 87  1  0
 87 88  2  0
 87 89  1  0
 89 90  1  0
 90 91  1  0
 91 92  1  0
 91 93  2  0
 90 94  1  0
 94 95  1  0
 95 96  1  0
 70  5  1  0
 14  9  1  0
 96 11  1  0
  1 97  1  0
  1 98  1  0
  1 99  1  0
  4100  1  0
  5101  1  1
  6102  1  0
  6103  1  0
  8104  1  0
  8105  1  0
 10106  1  0
 12107  1  0
 14108  1  0
 15109  1  0
 15110  1  0
 17111  1  0
 17112  1  0
 18113  1  1
 19114  1  0
 22115  1  6
 23116  1  0
 23117  1  0
 23118  1  0
 24119  1  0
 27120  1  1
 28121  1  0
 28122  1  0
 28123  1  0
 29124  1  0
 32125  1  1
 33126  1  0
 33127  1  0
 33128  1  0
 34129  1  0
 37130  1  1
 38131  1  0
 38132  1  0
 38133  1  0
 39134  1  0
 42135  1  1
 43136  1  0
 43137  1  0
 43138  1  0
 44139  1  0
 47140  1  1
 48141  1  0
 48142  1  0
 48143  1  0
 49144  1  0
 52145  1  1
 53146  1  0
 53147  1  0
 53148  1  0
 54149  1  0
 57150  1  1
 58151  1  0
 58152  1  0
 58153  1  0
 59154  1  0
 62155  1  6
 63156  1  0
 63157  1  0
 63158  1  0
 64159  1  0
 67160  1  6
 68161  1  0
 68162  1  0
 68163  1  0
 69164  1  0
 74165  1  0
 75166  1  6
 76167  1  0
 76168  1  0
 76169  1  0
 79170  1  0
 80171  1  1
 81172  1  0
 81173  1  0
 81174  1  0
 84175  1  0
 85176  1  1
 86177  1  0
 86178  1  0
 86179  1  0
 89180  1  0
 90181  1  1
 92182  1  0
 92183  1  0
 94184  1  0
 94185  1  0
 96186  1  0
 96187  1  0
M  END
