
     RDKit          3D

207209  0  0  0  0  0  0  0  0999 V2000
    0.0864    8.4936    2.7105 C   0  0  0  0  0  0  0  0  0  0  0  0
    0.5234    7.1431    2.3039 C   0  0  0  0  0  0  0  0  0  0  0  0
    0.9630    6.3300    3.1622 O   0  0  0  0  0  0  0  0  0  0  0  0
    0.4408    6.7332    0.9310 N   0  0  0  0  0  0  0  0  0  0  0  0
    1.6480    6.4651    0.1542 C   0  0  1  0  0  0  0  0  0  0  0  0
    1.2779    5.9122   -1.2487 C   0  0  0  0  0  0  0  0  0  0  0  0
    1.2967    4.0856   -1.3648 S   0  0  0  0  0  0  0  0  0  0  0  0
   -0.2462    3.7694   -0.3907 C   0  0  0  0  0  0  0  0  0  0  0  0
   -1.4601    3.5447   -1.2651 C   0  0  0  0  0  0  0  0  0  0  0  0
   -2.4430    4.5527   -1.4053 C   0  0  0  0  0  0  0  0  0  0  0  0
   -3.7471    4.1989   -1.8195 C   0  0  0  0  0  0  0  0  0  0  0  0
   -4.0528    2.8412   -1.9681 C   0  0  0  0  0  0  0  0  0  0  0  0
   -3.0731    1.8439   -1.8266 C   0  0  0  0  0  0  0  0  0  0  0  0
   -1.7639    2.2405   -1.6439 C   0  0  0  0  0  0  0  0  0  0  0  0
   -3.5086    0.4302   -1.4892 C   0  0  0  0  0  0  0  0  0  0  0  0
   -2.3375   -0.2943   -0.2576 S   0  0  0  0  0  0  0  0  0  0  0  0
   -2.2107   -1.9971   -0.9301 C   0  0  0  0  0  0  0  0  0  0  0  0
   -2.4291   -3.0969    0.1698 C   0  0  2  0  0  0  0  0  0  0  0  0
   -2.8480   -4.3339   -0.4830 N   0  0  0  0  0  0  0  0  0  0  0  0
   -2.1120   -5.5794   -0.4697 C   0  0  0  0  0  0  0  0  0  0  0  0
   -2.6058   -6.5549    0.1750 O   0  0  0  0  0  0  0  0  0  0  0  0
   -0.9049   -5.8164   -1.3352 C   0  0  1  0  0  0  0  0  0  0  0  0
   -0.9241   -4.9578   -2.6282 C   0  0  0  0  0  0  0  0  0  0  0  0
    0.3640   -5.5727   -0.5993 N   0  0  0  0  0  0  0  0  0  0  0  0
    1.6095   -5.9806   -1.1453 C   0  0  0  0  0  0  0  0  0  0  0  0
    2.4539   -5.0922   -1.5366 O   0  0  0  0  0  0  0  0  0  0  0  0
    2.1654   -7.3652   -0.8711 C   0  0  1  0  0  0  0  0  0  0  0  0
    1.1264   -8.3794   -0.4133 C   0  0  0  0  0  0  0  0  0  0  0  0
    2.8731   -7.8830   -2.0734 N   0  0  0  0  0  0  0  0  0  0  0  0
    4.3020   -7.8569   -2.3006 C   0  0  0  0  0  0  0  0  0  0  0  0
    4.6815   -7.5238   -3.4561 O   0  0  0  0  0  0  0  0  0  0  0  0
    5.3557   -7.8056   -1.2019 C   0  0  1  0  0  0  0  0  0  0  0  0
    5.5084   -6.3429   -0.9503 C   0  0  0  0  0  0  0  0  0  0  0  0
    5.0621   -8.4675    0.0913 N   0  0  0  0  0  0  0  0  0  0  0  0
    5.2424   -7.9347    1.4494 C   0  0  0  0  0  0  0  0  0  0  0  0
    4.2845   -8.0886    2.2610 O   0  0  0  0  0  0  0  0  0  0  0  0
    6.6016   -7.4879    2.0447 C   0  0  1  0  0  0  0  0  0  0  0  0
    7.8363   -8.1954    1.4778 C   0  0  0  0  0  0  0  0  0  0  0  0
    6.8041   -6.0253    2.3162 N   0  0  0  0  0  0  0  0  0  0  0  0
    6.7120   -4.8436    1.4604 C   0  0  0  0  0  0  0  0  0  0  0  0
    5.7230   -4.0302    1.6595 O   0  0  0  0  0  0  0  0  0  0  0  0
    7.9014   -4.2640    0.6408 C   0  0  1  0  0  0  0  0  0  0  0  0
    8.6514   -5.2297   -0.3131 C   0  0  0  0  0  0  0  0  0  0  0  0
    7.4429   -3.0689   -0.1047 N   0  0  0  0  0  0  0  0  0  0  0  0
    8.2842   -2.2199   -0.8898 C   0  0  0  0  0  0  0  0  0  0  0  0
    8.1067   -2.1600   -2.1526 O   0  0  0  0  0  0  0  0  0  0  0  0
    9.4434   -1.4559   -0.3140 C   0  0  1  0  0  0  0  0  0  0  0  0
   10.7670   -2.0451   -0.8392 C   0  0  0  0  0  0  0  0  0  0  0  0
    9.2931   -0.0191   -0.7037 N   0  0  0  0  0  0  0  0  0  0  0  0
   10.4127    0.8250   -1.0128 C   0  0  0  0  0  0  0  0  0  0  0  0
   10.5518    1.1983   -2.2027 O   0  0  0  0  0  0  0  0  0  0  0  0
   11.3656    1.3016    0.0670 C   0  0  1  0  0  0  0  0  0  0  0  0
   12.5097    2.2029   -0.4610 C   0  0  0  0  0  0  0  0  0  0  0  0
   10.6418    1.9559    1.1628 N   0  0  0  0  0  0  0  0  0  0  0  0
    9.6838    3.0256    1.0984 C   0  0  0  0  0  0  0  0  0  0  0  0
    9.0368    3.3059    2.1402 O   0  0  0  0  0  0  0  0  0  0  0  0
    9.4001    3.8087   -0.1839 C   0  0  1  0  0  0  0  0  0  0  0  0
    7.9193    3.7227   -0.6005 C   0  0  0  0  0  0  0  0  0  0  0  0
    9.8616    5.2210   -0.0531 N   0  0  0  0  0  0  0  0  0  0  0  0
    9.4743    6.1903    0.9092 C   0  0  0  0  0  0  0  0  0  0  0  0
   10.3171    7.0944    1.2303 O   0  0  0  0  0  0  0  0  0  0  0  0
    8.0594    6.3076    1.4763 C   0  0  1  0  0  0  0  0  0  0  0  0
    8.0602    7.1075    2.7900 C   0  0  0  0  0  0  0  0  0  0  0  0
    7.1950    6.9197    0.4545 N   0  0  0  0  0  0  0  0  0  0  0  0
    6.0338    7.6816    0.7631 C   0  0  0  0  0  0  0  0  0  0  0  0
    6.1449    8.9347    0.8093 O   0  0  0  0  0  0  0  0  0  0  0  0
    4.6962    7.0228    0.9735 C   0  0  1  0  0  0  0  0  0  0  0  0
    4.5825    6.4313    2.3733 C   0  0  0  0  0  0  0  0  0  0  0  0
    3.6166    8.0037    0.7714 N   0  0  0  0  0  0  0  0  0  0  0  0
    2.4287    7.7484    0.0095 C   0  0  0  0  0  0  0  0  0  0  0  0
    1.9278    8.7096   -0.6459 O   0  0  0  0  0  0  0  0  0  0  0  0
   -3.4353   -2.6785    1.2051 C   0  0  0  0  0  0  0  0  0  0  0  0
   -3.0787   -2.5192    2.4107 O   0  0  0  0  0  0  0  0  0  0  0  0
   -4.8175   -2.5149    0.8599 N   0  0  0  0  0  0  0  0  0  0  0  0
   -5.9196   -3.3688    1.3474 C   0  0  2  0  0  0  0  0  0  0  0  0
   -5.3960   -4.5531    2.1976 C   0  0  0  0  0  0  0  0  0  0  0  0
   -6.7235   -3.8660    0.1786 C   0  0  0  0  0  0  0  0  0  0  0  0
   -6.2446   -3.7701   -0.9904 O   0  0  0  0  0  0  0  0  0  0  0  0
   -7.9685   -4.5182    0.3502 N   0  0  0  0  0  0  0  0  0  0  0  0
   -9.0324   -4.0962    1.2779 C   0  0  2  0  0  0  0  0  0  0  0  0
   -8.9774   -4.9377    2.5681 C   0  0  0  0  0  0  0  0  0  0  0  0
  -10.3821   -4.2729    0.6454 C   0  0  0  0  0  0  0  0  0  0  0  0
  -10.5813   -5.1727   -0.2178 O   0  0  0  0  0  0  0  0  0  0  0  0
  -11.5191   -3.6047    1.1576 N   0  0  0  0  0  0  0  0  0  0  0  0
  -11.7842   -2.1857    0.9145 C   0  0  2  0  0  0  0  0  0  0  0  0
  -12.8985   -1.7187    1.8634 C   0  0  0  0  0  0  0  0  0  0  0  0
  -12.1860   -2.0275   -0.5567 C   0  0  0  0  0  0  0  0  0  0  0  0
  -13.0911   -2.7941   -1.0040 O   0  0  0  0  0  0  0  0  0  0  0  0
  -11.6517   -1.0189   -1.4675 N   0  0  0  0  0  0  0  0  0  0  0  0
  -10.8151    0.1203   -1.1047 C   0  0  2  0  0  0  0  0  0  0  0  0
   -9.4390   -0.3680   -0.5509 C   0  0  0  0  0  0  0  0  0  0  0  0
  -11.5664    1.0998   -0.2285 C   0  0  0  0  0  0  0  0  0  0  0  0
  -12.8078    0.9259   -0.0541 O   0  0  0  0  0  0  0  0  0  0  0  0
  -10.9997    2.3198    0.2485 N   0  0  0  0  0  0  0  0  0  0  0  0
   -9.7699    2.9513   -0.2592 C   0  0  2  0  0  0  0  0  0  0  0  0
   -9.0902    3.7085    0.9002 C   0  0  0  0  0  0  0  0  0  0  0  0
  -10.0806    3.8376   -1.4625 C   0  0  0  0  0  0  0  0  0  0  0  0
  -10.8714    3.4007   -2.3577 O   0  0  0  0  0  0  0  0  0  0  0  0
   -9.6681    5.2041   -1.5304 N   0  0  0  0  0  0  0  0  0  0  0  0
   -8.3641    5.6632   -2.0798 C   0  0  1  0  0  0  0  0  0  0  0  0
   -7.6995    6.5364   -1.0601 C   0  0  0  0  0  0  0  0  0  0  0  0
   -7.1236    7.7917   -1.4327 N   0  0  0  0  0  0  0  0  0  0  0  0
   -7.6598    6.2201    0.1538 O   0  0  0  0  0  0  0  0  0  0  0  0
   -7.4084    4.4721   -2.5013 C   0  0  0  0  0  0  0  0  0  0  0  0
   -5.8620    5.1013   -3.3257 S   0  0  0  0  0  0  0  0  0  0  0  0
   -4.8417    5.2166   -1.7795 C   0  0  0  0  0  0  0  0  0  0  0  0
   -0.6831    8.4188    3.5109 H   0  0  0  0  0  0  0  0  0  0  0  0
    0.9572    9.0936    3.0827 H   0  0  0  0  0  0  0  0  0  0  0  0
   -0.3563    9.0412    1.8435 H   0  0  0  0  0  0  0  0  0  0  0  0
   -0.3915    7.0732    0.4102 H   0  0  0  0  0  0  0  0  0  0  0  0
    2.2618    5.6986    0.6830 H   0  0  0  0  0  0  0  0  0  0  0  0
    2.0359    6.2356   -1.9875 H   0  0  0  0  0  0  0  0  0  0  0  0
    0.3124    6.3234   -1.6032 H   0  0  0  0  0  0  0  0  0  0  0  0
   -0.4817    4.5310    0.3975 H   0  0  0  0  0  0  0  0  0  0  0  0
   -0.0706    2.8068    0.1858 H   0  0  0  0  0  0  0  0  0  0  0  0
   -2.2022    5.5658   -1.1263 H   0  0  0  0  0  0  0  0  0  0  0  0
   -5.0817    2.5705   -2.2120 H   0  0  0  0  0  0  0  0  0  0  0  0
   -0.9746    1.4955   -1.6600 H   0  0  0  0  0  0  0  0  0  0  0  0
   -4.5184    0.4754   -0.9838 H   0  0  0  0  0  0  0  0  0  0  0  0
   -3.5924   -0.1682   -2.4130 H   0  0  0  0  0  0  0  0  0  0  0  0
   -2.9338   -2.1645   -1.7416 H   0  0  0  0  0  0  0  0  0  0  0  0
   -1.1842   -2.1228   -1.3298 H   0  0  0  0  0  0  0  0  0  0  0  0
   -1.4480   -3.2943    0.6868 H   0  0  0  0  0  0  0  0  0  0  0  0
   -3.7959   -4.3749   -0.9175 H   0  0  0  0  0  0  0  0  0  0  0  0
   -0.9506   -6.8742   -1.6614 H   0  0  0  0  0  0  0  0  0  0  0  0
   -0.3932   -3.9971   -2.4916 H   0  0  0  0  0  0  0  0  0  0  0  0
   -1.9738   -4.7655   -2.9643 H   0  0  0  0  0  0  0  0  0  0  0  0
   -0.4082   -5.5328   -3.4309 H   0  0  0  0  0  0  0  0  0  0  0  0
    0.3732   -4.7271    0.0311 H   0  0  0  0  0  0  0  0  0  0  0  0
    2.8755   -7.2487   -0.0395 H   0  0  0  0  0  0  0  0  0  0  0  0
    1.6299   -9.3361   -0.1523 H   0  0  0  0  0  0  0  0  0  0  0  0
    0.6157   -7.9945    0.4912 H   0  0  0  0  0  0  0  0  0  0  0  0
    0.3838   -8.5695   -1.2120 H   0  0  0  0  0  0  0  0  0  0  0  0
    2.3060   -8.2403   -2.8588 H   0  0  0  0  0  0  0  0  0  0  0  0
    6.2979   -8.2345   -1.6070 H   0  0  0  0  0  0  0  0  0  0  0  0
    6.4106   -6.3662   -0.3725 H   0  0  0  0  0  0  0  0  0  0  0  0
    4.6187   -5.9358   -0.4172 H   0  0  0  0  0  0  0  0  0  0  0  0
    5.7977   -5.6661   -1.7604 H   0  0  0  0  0  0  0  0  0  0  0  0
    4.4202   -9.2951    0.0041 H   0  0  0  0  0  0  0  0  0  0  0  0
    6.5517   -7.9334    3.0631 H   0  0  0  0  0  0  0  0  0  0  0  0
    7.9433   -9.1840    1.9374 H   0  0  0  0  0  0  0  0  0  0  0  0
    8.7689   -7.6320    1.6856 H   0  0  0  0  0  0  0  0  0  0  0  0
    7.7169   -8.3633    0.3798 H   0  0  0  0  0  0  0  0  0  0  0  0
    6.7503   -5.7641    3.3495 H   0  0  0  0  0  0  0  0  0  0  0  0
    8.6486   -3.9796    1.4366 H   0  0  0  0  0  0  0  0  0  0  0  0
    9.7208   -4.9818   -0.1580 H   0  0  0  0  0  0  0  0  0  0  0  0
    8.3424   -5.2051   -1.3694 H   0  0  0  0  0  0  0  0  0  0  0  0
    8.5861   -6.2667    0.0745 H   0  0  0  0  0  0  0  0  0  0  0  0
    6.5109   -3.2432   -0.5396 H   0  0  0  0  0  0  0  0  0  0  0  0
    9.4062   -1.5226    0.8003 H   0  0  0  0  0  0  0  0  0  0  0  0
   11.6206   -1.6704   -0.2625 H   0  0  0  0  0  0  0  0  0  0  0  0
   10.8957   -1.7626   -1.9100 H   0  0  0  0  0  0  0  0  0  0  0  0
   10.7826   -3.1562   -0.7790 H   0  0  0  0  0  0  0  0  0  0  0  0
    8.4257    0.2454   -1.2265 H   0  0  0  0  0  0  0  0  0  0  0  0
   11.8606    0.3984    0.4767 H   0  0  0  0  0  0  0  0  0  0  0  0
   12.1739    3.2444   -0.6212 H   0  0  0  0  0  0  0  0  0  0  0  0
   12.8858    1.8263   -1.4394 H   0  0  0  0  0  0  0  0  0  0  0  0
   13.3745    2.1806    0.2389 H   0  0  0  0  0  0  0  0  0  0  0  0
   10.7159    1.4889    2.0928 H   0  0  0  0  0  0  0  0  0  0  0  0
    9.9703    3.3922   -1.0219 H   0  0  0  0  0  0  0  0  0  0  0  0
    7.7760    2.8076   -1.2077 H   0  0  0  0  0  0  0  0  0  0  0  0
    7.2508    3.6659    0.2778 H   0  0  0  0  0  0  0  0  0  0  0  0
    7.6458    4.6042   -1.2117 H   0  0  0  0  0  0  0  0  0  0  0  0
   10.6831    5.4813   -0.6408 H   0  0  0  0  0  0  0  0  0  0  0  0
    7.6595    5.2985    1.7151 H   0  0  0  0  0  0  0  0  0  0  0  0
    8.9189    6.8230    3.4511 H   0  0  0  0  0  0  0  0  0  0  0  0
    8.1277    8.2100    2.5959 H   0  0  0  0  0  0  0  0  0  0  0  0
    7.1385    6.9107    3.3840 H   0  0  0  0  0  0  0  0  0  0  0  0
    7.6159    7.1094   -0.4928 H   0  0  0  0  0  0  0  0  0  0  0  0
    4.6019    6.1924    0.2362 H   0  0  0  0  0  0  0  0  0  0  0  0
    3.5586    6.0458    2.5673 H   0  0  0  0  0  0  0  0  0  0  0  0
    5.2838    5.5728    2.5016 H   0  0  0  0  0  0  0  0  0  0  0  0
    4.8026    7.2068    3.1595 H   0  0  0  0  0  0  0  0  0  0  0  0
    3.7270    8.9726    1.1583 H   0  0  0  0  0  0  0  0  0  0  0  0
   -5.0567   -1.6804    0.2776 H   0  0  0  0  0  0  0  0  0  0  0  0
   -6.5687   -2.7365    1.9799 H   0  0  0  0  0  0  0  0  0  0  0  0
   -5.1344   -4.1922    3.2135 H   0  0  0  0  0  0  0  0  0  0  0  0
   -4.5388   -5.0593    1.6985 H   0  0  0  0  0  0  0  0  0  0  0  0
   -6.1996   -5.3052    2.3438 H   0  0  0  0  0  0  0  0  0  0  0  0
   -8.1606   -5.3345   -0.3087 H   0  0  0  0  0  0  0  0  0  0  0  0
   -8.8998   -3.0236    1.5481 H   0  0  0  0  0  0  0  0  0  0  0  0
   -8.1862   -4.5691    3.2450 H   0  0  0  0  0  0  0  0  0  0  0  0
   -9.9476   -4.8897    3.1215 H   0  0  0  0  0  0  0  0  0  0  0  0
   -8.7804   -6.0095    2.3164 H   0  0  0  0  0  0  0  0  0  0  0  0
  -12.3688   -4.2061    1.3141 H   0  0  0  0  0  0  0  0  0  0  0  0
  -10.8743   -1.5843    1.1554 H   0  0  0  0  0  0  0  0  0  0  0  0
  -12.5581   -1.8499    2.8987 H   0  0  0  0  0  0  0  0  0  0  0  0
  -13.8105   -2.3094    1.6989 H   0  0  0  0  0  0  0  0  0  0  0  0
  -13.1376   -0.6498    1.7183 H   0  0  0  0  0  0  0  0  0  0  0  0
  -12.0382   -1.0365   -2.4428 H   0  0  0  0  0  0  0  0  0  0  0  0
  -10.5739    0.6738   -2.0387 H   0  0  0  0  0  0  0  0  0  0  0  0
   -8.6123   -0.0205   -1.2162 H   0  0  0  0  0  0  0  0  0  0  0  0
   -9.3754   -1.4851   -0.5571 H   0  0  0  0  0  0  0  0  0  0  0  0
   -9.2636    0.0030    0.4743 H   0  0  0  0  0  0  0  0  0  0  0  0
  -11.5931    2.9029    0.8884 H   0  0  0  0  0  0  0  0  0  0  0  0
   -9.0546    2.1966   -0.6158 H   0  0  0  0  0  0  0  0  0  0  0  0
   -9.5935    4.6818    1.0985 H   0  0  0  0  0  0  0  0  0  0  0  0
   -9.1403    3.0902    1.8060 H   0  0  0  0  0  0  0  0  0  0  0  0
   -8.0193    3.8534    0.6808 H   0  0  0  0  0  0  0  0  0  0  0  0
  -10.4347    5.9146   -1.6575 H   0  0  0  0  0  0  0  0  0  0  0  0
   -8.5350    6.2658   -2.9970 H   0  0  0  0  0  0  0  0  0  0  0  0
   -6.3921    8.1242   -0.7501 H   0  0  0  0  0  0  0  0  0  0  0  0
   -6.7666    7.9539   -2.4140 H   0  0  0  0  0  0  0  0  0  0  0  0
   -7.9612    3.8613   -3.2492 H   0  0  0  0  0  0  0  0  0  0  0  0
   -7.1771    3.8208   -1.6478 H   0  0  0  0  0  0  0  0  0  0  0  0
   -5.4220    4.9909   -0.8506 H   0  0  0  0  0  0  0  0  0  0  0  0
   -4.4529    6.2565   -1.6191 H   0  0  0  0  0  0  0  0  0  0  0  0
  1  2  1  0
  2  3  2  0
  2  4  1  0
  4  5  1  0
  5  6  1  0
  6  7  1  0
  7  8  1  0
  8  9  1  0
  9 10  2  0
 10 11  1  0
 11 12  2  0
 12 13  1  0
 13 14  2  0
 13 15  1  0
 15 16  1  0
 16 17  1  0
 17 18  1  0
 18 19  1  0
 19 20  1  0
 20 21  2  0
 20 22  1  0
 22 23  1  0
 22 24  1  0
 24 25  1  0
 25 26  2  0
 25 27  1  0
 27 28  1  0
 27 29  1  0
 29 30  1  0
 30 31  2  0
 30 32  1  0
 32 33  1  0
 32 34  1  0
 34 35  1  0
 35 36  2  0
 35 37  1  0
 37 38  1  0
 37 39  1  0
 39 40  1  0
 40 41  2  0
 40 42  1  0
 42 43  1  0
 42 44  1  0
 44 45  1  0
 45 46  2  0
 45 47  1  0
 47 48  1  0
 47 49  1  0
 49 50  1  0
 50 51  2  0
 50 52  1  0
 52 53  1  0
 52 54  1  0
 54 55  1  0
 55 56  2  0
 55 57  1  0
 57 58  1  0
 57 59  1  0
 59 60  1  0
 60 61  2  0
 60 62  1  0
 62 63  1  0
 62 64  1  0
 64 65  1  0
 65 66  2  0
 65 67  1  0
 67 68  1  0
 67 69  1  0
 69 70  1  0
 70 71  2  0
 18 72  1  0
 72 73  2  0
 72 74  1  0
 74 75  1  0
 75 76  1  0
 75 77  1  0
 77 78  2  0
 77 79  1  0
 79 80  1  0
 80 81  1  0
 80 82  1  0
 82 83  2  0
 82 84  1  0
 84 85  1  0
 85 86  1  0
 85 87  1  0
 87 88  2  0
 87 89  1  0
 89 90  1  0
 90 91  1  0
 90 92  1  0
 92 93  2  0
 92 94  1  0
 94 95  1  0
 95 96  1  0
 95 97  1  0
 97 98  2  0
 97 99  1  0
 99100  1  0
100101  1  0
101102  1  0
101103  2  0
100104  1  0
104105  1  0
105106  1  0
 70  5  1  0
 14  9  1  0
106 11  1  0
  1107  1  0
  1108  1  0
  1109  1  0
  4110  1  0
  5111  1  1
  6112  1  0
  6113  1  0
  8114  1  0
  8115  1  0
 10116  1  0
 12117  1  0
 14118  1  0
 15119  1  0
 15120  1  0
 17121  1  0
 17122  1  0
 18123  1  1
 19124  1  0
 22125  1  6
 23126  1  0
 23127  1  0
 23128  1  0
 24129  1  0
 27130  1  1
 28131  1  0
 28132  1  0
 28133  1  0
 29134  1  0
 32135  1  6
 33136  1  0
 33137  1  0
 33138  1  0
 34139  1  0
 37140  1  1
 38141  1  0
 38142  1  0
 38143  1  0
 39144  1  0
 42145  1  1
 43146  1  0
 43147  1  0
 43148  1  0
 44149  1  0
 47150  1  1
 48151  1  0
 48152  1  0
 48153  1  0
 49154  1  0
 52155  1  1
 53156  1  0
 53157  1  0
 53158  1  0
 54159  1  0
 57160  1  6
 58161  1  0
 58162  1  0
 58163  1  0
 59164  1  0
 62165  1  1
 63166  1  0
 63167  1  0
 63168  1  0
 64169  1  0
 67170  1  6
 68171  1  0
 68172  1  0
 68173  1  0
 69174  1  0
 74175  1  0
 75176  1  1
 76177  1  0
 76178  1  0
 76179  1  0
 79180  1  0
 80181  1  1
 81182  1  0
 81183  1  0
 81184  1  0
 84185  1  0
 85186  1  6
 86187  1  0
 86188  1  0
 86189  1  0
 89190  1  0
 90191  1  6
 91192  1  0
 91193  1  0
 91194  1  0
 94195  1  0
 95196  1  6
 96197  1  0
 96198  1  0
 96199  1  0
 99200  1  0
100201  1  6
102202  1  0
102203  1  0
104204  1  0
104205  1  0
106206  1  0
106207  1  0
M  END
