
     RDKit          3D

207209  0  0  0  0  0  0  0  0999 V2000
    0.1996    9.1527    1.7268 C   0  0  0  0  0  0  0  0  0  0  0  0
   -0.1209    9.0775    0.2639 C   0  0  0  0  0  0  0  0  0  0  0  0
   -0.0538   10.1265   -0.4279 O   0  0  0  0  0  0  0  0  0  0  0  0
   -0.5171    7.8480   -0.3696 N   0  0  0  0  0  0  0  0  0  0  0  0
   -0.5553    6.5546    0.3250 C   0  0  2  0  0  0  0  0  0  0  0  0
   -0.6076    5.3797   -0.6756 C   0  0  0  0  0  0  0  0  0  0  0  0
    0.1100    3.8475    0.0394 S   0  0  0  0  0  0  0  0  0  0  0  0
    1.8565    4.2646   -0.3142 C   0  0  0  0  0  0  0  0  0  0  0  0
    2.7475    3.0675   -0.1241 C   0  0  0  0  0  0  0  0  0  0  0  0
    3.7486    3.0747    0.8626 C   0  0  0  0  0  0  0  0  0  0  0  0
    4.7089    2.0536    0.9095 C   0  0  0  0  0  0  0  0  0  0  0  0
    4.6357    1.0003   -0.0136 C   0  0  0  0  0  0  0  0  0  0  0  0
    3.5872    0.9307   -0.9487 C   0  0  0  0  0  0  0  0  0  0  0  0
    2.6685    1.9903   -1.0161 C   0  0  0  0  0  0  0  0  0  0  0  0
    3.5133   -0.1671   -1.9824 C   0  0  0  0  0  0  0  0  0  0  0  0
    4.1952   -1.7737   -1.4255 S   0  0  0  0  0  0  0  0  0  0  0  0
    2.8911   -2.1363   -0.1950 C   0  0  0  0  0  0  0  0  0  0  0  0
    3.1655   -3.4578    0.5448 C   0  0  2  0  0  0  0  0  0  0  0  0
    2.0531   -3.7251    1.4650 N   0  0  0  0  0  0  0  0  0  0  0  0
    0.8460   -4.4407    1.1368 C   0  0  0  0  0  0  0  0  0  0  0  0
   -0.1198   -4.3941    1.9477 O   0  0  0  0  0  0  0  0  0  0  0  0
    0.7178   -5.3140   -0.0928 C   0  0  1  0  0  0  0  0  0  0  0  0
    1.4488   -6.6416    0.1419 C   0  0  0  0  0  0  0  0  0  0  0  0
   -0.7054   -5.4868   -0.4433 N   0  0  0  0  0  0  0  0  0  0  0  0
   -1.2977   -6.7093   -0.9199 C   0  0  0  0  0  0  0  0  0  0  0  0
   -1.5634   -6.8157   -2.1489 O   0  0  0  0  0  0  0  0  0  0  0  0
   -1.6002   -7.8587    0.0153 C   0  0  1  0  0  0  0  0  0  0  0  0
   -2.1083   -7.4002    1.3932 C   0  0  0  0  0  0  0  0  0  0  0  0
   -2.5043   -8.8500   -0.5871 N   0  0  0  0  0  0  0  0  0  0  0  0
   -3.8877   -8.6875   -0.9541 C   0  0  0  0  0  0  0  0  0  0  0  0
   -4.5283   -9.7094   -1.3234 O   0  0  0  0  0  0  0  0  0  0  0  0
   -4.6108   -7.3578   -0.9604 C   0  0  1  0  0  0  0  0  0  0  0  0
   -5.0625   -7.0328   -2.3903 C   0  0  0  0  0  0  0  0  0  0  0  0
   -5.7736   -7.4279   -0.0654 N   0  0  0  0  0  0  0  0  0  0  0  0
   -6.6872   -6.3273    0.0789 C   0  0  0  0  0  0  0  0  0  0  0  0
   -6.2381   -5.1495    0.1288 O   0  0  0  0  0  0  0  0  0  0  0  0
   -8.1855   -6.5353    0.0741 C   0  0  1  0  0  0  0  0  0  0  0  0
   -8.5989   -8.0093   -0.0434 C   0  0  0  0  0  0  0  0  0  0  0  0
   -8.7843   -5.9627    1.2860 N   0  0  0  0  0  0  0  0  0  0  0  0
  -10.0879   -5.3557    1.3223 C   0  0  0  0  0  0  0  0  0  0  0  0
  -10.7715   -5.4542    2.3784 O   0  0  0  0  0  0  0  0  0  0  0  0
  -10.6611   -4.5993    0.1402 C   0  0  1  0  0  0  0  0  0  0  0  0
  -11.4798   -5.5316   -0.7586 C   0  0  0  0  0  0  0  0  0  0  0  0
  -11.5299   -3.5140    0.6095 N   0  0  0  0  0  0  0  0  0  0  0  0
  -11.4365   -2.1574    0.1499 C   0  0  0  0  0  0  0  0  0  0  0  0
  -12.4986   -1.4946    0.0067 O   0  0  0  0  0  0  0  0  0  0  0  0
  -10.1096   -1.4954   -0.1360 C   0  0  1  0  0  0  0  0  0  0  0  0
   -9.8620   -1.4808   -1.6536 C   0  0  0  0  0  0  0  0  0  0  0  0
  -10.1105   -0.1495    0.4690 N   0  0  0  0  0  0  0  0  0  0  0  0
   -9.8385    1.0798   -0.2273 C   0  0  0  0  0  0  0  0  0  0  0  0
   -8.8218    1.1779   -0.9654 O   0  0  0  0  0  0  0  0  0  0  0  0
  -10.7566    2.2649   -0.0704 C   0  0  1  0  0  0  0  0  0  0  0  0
  -12.1872    1.8891   -0.4637 C   0  0  0  0  0  0  0  0  0  0  0  0
  -10.7354    2.7409    1.3190 N   0  0  0  0  0  0  0  0  0  0  0  0
  -10.5113    4.0971    1.7507 C   0  0  0  0  0  0  0  0  0  0  0  0
  -10.6789    4.3648    2.9735 O   0  0  0  0  0  0  0  0  0  0  0  0
  -10.1539    5.2200    0.7982 C   0  0  1  0  0  0  0  0  0  0  0  0
  -11.4188    5.7503    0.1138 C   0  0  0  0  0  0  0  0  0  0  0  0
   -9.5129    6.3224    1.5296 N   0  0  0  0  0  0  0  0  0  0  0  0
   -8.4152    7.1135    1.0403 C   0  0  0  0  0  0  0  0  0  0  0  0
   -8.3081    8.3008    1.4417 O   0  0  0  0  0  0  0  0  0  0  0  0
   -7.4219    6.5912    0.0194 C   0  0  1  0  0  0  0  0  0  0  0  0
   -7.8709    7.0312   -1.3801 C   0  0  0  0  0  0  0  0  0  0  0  0
   -6.0690    7.0945    0.3044 N   0  0  0  0  0  0  0  0  0  0  0  0
   -4.9029    6.6647   -0.4220 C   0  0  0  0  0  0  0  0  0  0  0  0
   -4.9731    5.6777   -1.2020 O   0  0  0  0  0  0  0  0  0  0  0  0
   -3.5793    7.3664   -0.2417 C   0  0  1  0  0  0  0  0  0  0  0  0
   -3.7501    8.8870   -0.3570 C   0  0  0  0  0  0  0  0  0  0  0  0
   -3.0145    7.0237    1.0688 N   0  0  0  0  0  0  0  0  0  0  0  0
   -1.6996    6.4879    1.3189 C   0  0  0  0  0  0  0  0  0  0  0  0
   -1.4663    5.9848    2.4492 O   0  0  0  0  0  0  0  0  0  0  0  0
    4.4545   -3.3906    1.3439 C   0  0  0  0  0  0  0  0  0  0  0  0
    4.5891   -2.4615    2.1877 O   0  0  0  0  0  0  0  0  0  0  0  0
    5.5049   -4.3735    1.2366 N   0  0  0  0  0  0  0  0  0  0  0  0
    5.6472   -5.3513    0.1504 C   0  0  2  0  0  0  0  0  0  0  0  0
    6.7034   -6.4177    0.4756 C   0  0  0  0  0  0  0  0  0  0  0  0
    5.9420   -4.6747   -1.1701 C   0  0  0  0  0  0  0  0  0  0  0  0
    5.2215   -4.9807   -2.1571 O   0  0  0  0  0  0  0  0  0  0  0  0
    6.9879   -3.6991   -1.3635 N   0  0  0  0  0  0  0  0  0  0  0  0
    7.9833   -3.2747   -0.3746 C   0  0  2  0  0  0  0  0  0  0  0  0
    7.7537   -1.8048   -0.0278 C   0  0  0  0  0  0  0  0  0  0  0  0
    9.3661   -3.5509   -0.9099 C   0  0  0  0  0  0  0  0  0  0  0  0
    9.6055   -4.6639   -1.4532 O   0  0  0  0  0  0  0  0  0  0  0  0
   10.4244   -2.5912   -0.8175 N   0  0  0  0  0  0  0  0  0  0  0  0
   11.2815   -2.4088    0.3627 C   0  0  2  0  0  0  0  0  0  0  0  0
   11.1490   -3.5680    1.3650 C   0  0  0  0  0  0  0  0  0  0  0  0
   11.0020   -1.0659    0.9894 C   0  0  0  0  0  0  0  0  0  0  0  0
   10.8596   -0.9533    2.2386 O   0  0  0  0  0  0  0  0  0  0  0  0
   10.8365    0.0895    0.1582 N   0  0  0  0  0  0  0  0  0  0  0  0
   11.9271    1.0149   -0.1399 C   0  0  2  0  0  0  0  0  0  0  0  0
   13.1855    0.2810   -0.6232 C   0  0  0  0  0  0  0  0  0  0  0  0
   12.2174    1.8695    1.0783 C   0  0  0  0  0  0  0  0  0  0  0  0
   12.8430    1.3529    2.0438 O   0  0  0  0  0  0  0  0  0  0  0  0
   11.7558    3.2256    1.2107 N   0  0  0  0  0  0  0  0  0  0  0  0
   11.1039    4.0041    0.1504 C   0  0  2  0  0  0  0  0  0  0  0  0
   12.1560    4.5236   -0.8336 C   0  0  0  0  0  0  0  0  0  0  0  0
   10.3445    5.1713    0.7456 C   0  0  0  0  0  0  0  0  0  0  0  0
   10.9701    5.9739    1.4881 O   0  0  0  0  0  0  0  0  0  0  0  0
    8.9459    5.4268    0.4878 N   0  0  0  0  0  0  0  0  0  0  0  0
    8.0400    4.6767   -0.3965 C   0  0  1  0  0  0  0  0  0  0  0  0
    8.5990    4.5749   -1.7994 C   0  0  0  0  0  0  0  0  0  0  0  0
    8.7382    3.3251   -2.4851 N   0  0  0  0  0  0  0  0  0  0  0  0
    8.9358    5.6338   -2.3940 O   0  0  0  0  0  0  0  0  0  0  0  0
    7.5971    3.3509    0.2482 C   0  0  0  0  0  0  0  0  0  0  0  0
    6.7480    3.6824    1.8342 S   0  0  0  0  0  0  0  0  0  0  0  0
    5.8316    2.1002    1.9190 C   0  0  0  0  0  0  0  0  0  0  0  0
   -0.6878    8.8594    2.3241 H   0  0  0  0  0  0  0  0  0  0  0  0
    1.0479    8.4796    1.9651 H   0  0  0  0  0  0  0  0  0  0  0  0
    0.4796   10.1881    2.0079 H   0  0  0  0  0  0  0  0  0  0  0  0
   -0.7053    7.8821   -1.3977 H   0  0  0  0  0  0  0  0  0  0  0  0
    0.3954    6.4584    0.8891 H   0  0  0  0  0  0  0  0  0  0  0  0
   -1.6546    5.1576   -0.9717 H   0  0  0  0  0  0  0  0  0  0  0  0
   -0.0620    5.6360   -1.6079 H   0  0  0  0  0  0  0  0  0  0  0  0
    2.1770    5.1003    0.3459 H   0  0  0  0  0  0  0  0  0  0  0  0
    1.9633    4.6075   -1.3648 H   0  0  0  0  0  0  0  0  0  0  0  0
    3.8138    3.9022    1.5587 H   0  0  0  0  0  0  0  0  0  0  0  0
    5.3970    0.2373    0.0008 H   0  0  0  0  0  0  0  0  0  0  0  0
    1.9108    1.9913   -1.7878 H   0  0  0  0  0  0  0  0  0  0  0  0
    2.4626   -0.3262   -2.3062 H   0  0  0  0  0  0  0  0  0  0  0  0
    4.0936    0.1549   -2.8730 H   0  0  0  0  0  0  0  0  0  0  0  0
    2.8165   -1.3015    0.5388 H   0  0  0  0  0  0  0  0  0  0  0  0
    1.9186   -2.2144   -0.7297 H   0  0  0  0  0  0  0  0  0  0  0  0
    3.2325   -4.2581   -0.2118 H   0  0  0  0  0  0  0  0  0  0  0  0
    2.0365   -3.1941    2.3658 H   0  0  0  0  0  0  0  0  0  0  0  0
    1.1987   -4.7997   -0.9531 H   0  0  0  0  0  0  0  0  0  0  0  0
    1.0528   -7.1540    1.0444 H   0  0  0  0  0  0  0  0  0  0  0  0
    1.3602   -7.3012   -0.7471 H   0  0  0  0  0  0  0  0  0  0  0  0
    2.5264   -6.4618    0.3152 H   0  0  0  0  0  0  0  0  0  0  0  0
   -1.2330   -4.6116   -0.6567 H   0  0  0  0  0  0  0  0  0  0  0  0
   -0.6417   -8.3842    0.1982 H   0  0  0  0  0  0  0  0  0  0  0  0
   -2.9609   -6.6974    1.3155 H   0  0  0  0  0  0  0  0  0  0  0  0
   -1.2918   -6.8859    1.9423 H   0  0  0  0  0  0  0  0  0  0  0  0
   -2.4232   -8.2794    1.9935 H   0  0  0  0  0  0  0  0  0  0  0  0
   -2.1030   -9.8050   -0.7338 H   0  0  0  0  0  0  0  0  0  0  0  0
   -3.9503   -6.5381   -0.6291 H   0  0  0  0  0  0  0  0  0  0  0  0
   -5.8260   -7.7648   -2.7321 H   0  0  0  0  0  0  0  0  0  0  0  0
   -5.5050   -6.0153   -2.4315 H   0  0  0  0  0  0  0  0  0  0  0  0
   -4.1958   -7.0612   -3.0840 H   0  0  0  0  0  0  0  0  0  0  0  0
   -6.0162   -8.3360    0.3875 H   0  0  0  0  0  0  0  0  0  0  0  0
   -8.5632   -6.0162   -0.8293 H   0  0  0  0  0  0  0  0  0  0  0  0
   -8.1479   -8.4688   -0.9515 H   0  0  0  0  0  0  0  0  0  0  0  0
   -8.2896   -8.5770    0.8580 H   0  0  0  0  0  0  0  0  0  0  0  0
   -9.7022   -8.0905   -0.1290 H   0  0  0  0  0  0  0  0  0  0  0  0
   -8.3684   -6.2498    2.2015 H   0  0  0  0  0  0  0  0  0  0  0  0
   -9.8260   -4.1883   -0.4582 H   0  0  0  0  0  0  0  0  0  0  0  0
  -12.3008   -6.0137   -0.1853 H   0  0  0  0  0  0  0  0  0  0  0  0
  -11.9252   -4.9446   -1.5912 H   0  0  0  0  0  0  0  0  0  0  0  0
  -10.8444   -6.3181   -1.2106 H   0  0  0  0  0  0  0  0  0  0  0  0
  -12.4034   -3.7814    1.1236 H   0  0  0  0  0  0  0  0  0  0  0  0
   -9.3036   -2.0838    0.3512 H   0  0  0  0  0  0  0  0  0  0  0  0
   -8.8169   -1.1742   -1.8682 H   0  0  0  0  0  0  0  0  0  0  0  0
  -10.0018   -2.4953   -2.0805 H   0  0  0  0  0  0  0  0  0  0  0  0
  -10.5661   -0.7884   -2.1615 H   0  0  0  0  0  0  0  0  0  0  0  0
  -10.4348   -0.0827    1.4611 H   0  0  0  0  0  0  0  0  0  0  0  0
  -10.4247    3.0532   -0.7705 H   0  0  0  0  0  0  0  0  0  0  0  0
  -12.8380    2.7860   -0.4376 H   0  0  0  0  0  0  0  0  0  0  0  0
  -12.6053    1.1395    0.2405 H   0  0  0  0  0  0  0  0  0  0  0  0
  -12.2070    1.4718   -1.4945 H   0  0  0  0  0  0  0  0  0  0  0  0
  -11.0237    2.0630    2.0578 H   0  0  0  0  0  0  0  0  0  0  0  0
   -9.4685    4.8363    0.0208 H   0  0  0  0  0  0  0  0  0  0  0  0
  -11.1677    6.6260   -0.5220 H   0  0  0  0  0  0  0  0  0  0  0  0
  -12.1695    6.0680    0.8683 H   0  0  0  0  0  0  0  0  0  0  0  0
  -11.8703    4.9757   -0.5366 H   0  0  0  0  0  0  0  0  0  0  0  0
  -10.0438    6.7275    2.3359 H   0  0  0  0  0  0  0  0  0  0  0  0
   -7.3827    5.4816    0.0668 H   0  0  0  0  0  0  0  0  0  0  0  0
   -7.1950    6.6199   -2.1577 H   0  0  0  0  0  0  0  0  0  0  0  0
   -7.8732    8.1389   -1.4550 H   0  0  0  0  0  0  0  0  0  0  0  0
   -8.8933    6.6573   -1.5929 H   0  0  0  0  0  0  0  0  0  0  0  0
   -5.9281    7.7768    1.0834 H   0  0  0  0  0  0  0  0  0  0  0  0
   -2.9046    7.0499   -1.0628 H   0  0  0  0  0  0  0  0  0  0  0  0
   -4.3354    9.2964    0.4948 H   0  0  0  0  0  0  0  0  0  0  0  0
   -4.2619    9.1459   -1.3089 H   0  0  0  0  0  0  0  0  0  0  0  0
   -2.7641    9.3889   -0.3525 H   0  0  0  0  0  0  0  0  0  0  0  0
   -3.6344    7.1475    1.9018 H   0  0  0  0  0  0  0  0  0  0  0  0
    6.2041   -4.3901    2.0140 H   0  0  0  0  0  0  0  0  0  0  0  0
    4.6970   -5.9145    0.0567 H   0  0  0  0  0  0  0  0  0  0  0  0
    6.7324   -7.1747   -0.3374 H   0  0  0  0  0  0  0  0  0  0  0  0
    6.4284   -6.9422    1.4168 H   0  0  0  0  0  0  0  0  0  0  0  0
    7.7201   -5.9984    0.5931 H   0  0  0  0  0  0  0  0  0  0  0  0
    7.0343   -3.2451   -2.3034 H   0  0  0  0  0  0  0  0  0  0  0  0
    7.8852   -3.8381    0.5633 H   0  0  0  0  0  0  0  0  0  0  0  0
    8.3747   -1.5085    0.8407 H   0  0  0  0  0  0  0  0  0  0  0  0
    6.6966   -1.6606    0.2730 H   0  0  0  0  0  0  0  0  0  0  0  0
    7.9744   -1.1473   -0.8980 H   0  0  0  0  0  0  0  0  0  0  0  0
   10.6633   -2.0543   -1.6825 H   0  0  0  0  0  0  0  0  0  0  0  0
   12.3356   -2.4045    0.0147 H   0  0  0  0  0  0  0  0  0  0  0  0
   11.8926   -3.4513    2.1844 H   0  0  0  0  0  0  0  0  0  0  0  0
   10.1306   -3.5937    1.8096 H   0  0  0  0  0  0  0  0  0  0  0  0
   11.3492   -4.5363    0.8567 H   0  0  0  0  0  0  0  0  0  0  0  0
    9.8656    0.4769    0.0949 H   0  0  0  0  0  0  0  0  0  0  0  0
   11.6055    1.6403   -0.9946 H   0  0  0  0  0  0  0  0  0  0  0  0
   13.9516    1.0177   -0.9472 H   0  0  0  0  0  0  0  0  0  0  0  0
   12.9334   -0.3642   -1.4944 H   0  0  0  0  0  0  0  0  0  0  0  0
   13.6180   -0.3497    0.1820 H   0  0  0  0  0  0  0  0  0  0  0  0
   11.9139    3.6791    2.1373 H   0  0  0  0  0  0  0  0  0  0  0  0
   10.4046    3.3534   -0.3959 H   0  0  0  0  0  0  0  0  0  0  0  0
   11.6764    5.1398   -1.6237 H   0  0  0  0  0  0  0  0  0  0  0  0
   12.9129    5.1450   -0.3054 H   0  0  0  0  0  0  0  0  0  0  0  0
   12.6860    3.6799   -1.3258 H   0  0  0  0  0  0  0  0  0  0  0  0
    8.5409    6.2773    0.9479 H   0  0  0  0  0  0  0  0  0  0  0  0
    7.1108    5.2794   -0.5027 H   0  0  0  0  0  0  0  0  0  0  0  0
    9.1346    3.3088   -3.4504 H   0  0  0  0  0  0  0  0  0  0  0  0
    8.5055    2.4124   -2.0397 H   0  0  0  0  0  0  0  0  0  0  0  0
    6.8898    2.8457   -0.4433 H   0  0  0  0  0  0  0  0  0  0  0  0
    8.4521    2.6720    0.4405 H   0  0  0  0  0  0  0  0  0  0  0  0
    5.3944    2.0046    2.9361 H   0  0  0  0  0  0  0  0  0  0  0  0
    6.5446    1.2571    1.7839 H   0  0  0  0  0  0  0  0  0  0  0  0
  1  2  1  0
  2  3  2  0
  2  4  1  0
  4  5  1  0
  5  6  1  0
  6  7  1  0
  7  8  1  0
  8  9  1  0
  9 10  2  0
 10 11  1  0
 11 12  2  0
 12 13  1  0
 13 14  2  0
 13 15  1  0
 15 16  1  0
 16 17  1  0
 17 18  1  0
 18 19  1  0
 19 20  1  0
 20 21  2  0
 20 22  1  0
 22 23  1  0
 22 24  1  0
 24 25  1  0
 25 26  2  0
 25 27  1  0
 27 28  1  0
 27 29  1  0
 29 30  1  0
 30 31  2  0
 30 32  1  0
 32 33  1  0
 32 34  1  0
 34 35  1  0
 35 36  2  0
 35 37  1  0
 37 38  1  0
 37 39  1  0
 39 40  1  0
 40 41  2  0
 40 42  1  0
 42 43  1  0
 42 44  1  0
 44 45  1  0
 45 46  2  0
 45 47  1  0
 47 48  1  0
 47 49  1  0
 49 50  1  0
 50 51  2  0
 50 52  1  0
 52 53  1  0
 52 54  1  0
 54 55  1  0
 55 56  2  0
 55 57  1  0
 57 58  1  0
 57 59  1  0
 59 60  1  0
 60 61  2  0
 60 62  1  0
 62 63  1  0
 62 64  1  0
 64 65  1  0
 65 66  2  0
 65 67  1  0
 67 68  1  0
 67 69  1  0
 69 70  1  0
 70 71  2  0
 18 72  1  0
 72 73  2  0
 72 74  1  0
 74 75  1  0
 75 76  1  0
 75 77  1  0
 77 78  2  0
 77 79  1  0
 79 80  1  0
 80 81  1  0
 80 82  1  0
 82 83  2  0
 82 84  1  0
 84 85  1  0
 85 86  1  0
 85 87  1  0
 87 88  2  0
 87 89  1  0
 89 90  1  0
 90 91  1  0
 90 92  1  0
 92 93  2  0
 92 94  1  0
 94 95  1  0
 95 96  1  0
 95 97  1  0
 97 98  2  0
 97 99  1  0
 99100  1  0
100101  1  0
101102  1  0
101103  2  0
100104  1  0
104105  1  0
105106  1  0
 70  5  1  0
 14  9  1  0
106 11  1  0
  1107  1  0
  1108  1  0
  1109  1  0
  4110  1  0
  5111  1  1
  6112  1  0
  6113  1  0
  8114  1  0
  8115  1  0
 10116  1  0
 12117  1  0
 14118  1  0
 15119  1  0
 15120  1  0
 17121  1  0
 17122  1  0
 18123  1  6
 19124  1  0
 22125  1  6
 23126  1  0
 23127  1  0
 23128  1  0
 24129  1  0
 27130  1  1
 28131  1  0
 28132  1  0
 28133  1  0
 29134  1  0
 32135  1  1
 33136  1  0
 33137  1  0
 33138  1  0
 34139  1  0
 37140  1  6
 38141  1  0
 38142  1  0
 38143  1  0
 39144  1  0
 42145  1  6
 43146  1  0
 43147  1  0
 43148  1  0
 44149  1  0
 47150  1  1
 48151  1  0
 48152  1  0
 48153  1  0
 49154  1  0
 52155  1  6
 53156  1  0
 53157  1  0
 53158  1  0
 54159  1  0
 57160  1  6
 58161  1  0
 58162  1  0
 58163  1  0
 59164  1  0
 62165  1  6
 63166  1  0
 63167  1  0
 63168  1  0
 64169  1  0
 67170  1  6
 68171  1  0
 68172  1  0
 68173  1  0
 69174  1  0
 74175  1  0
 75176  1  6
 76177  1  0
 76178  1  0
 76179  1  0
 79180  1  0
 80181  1  1
 81182  1  0
 81183  1  0
 81184  1  0
 84185  1  0
 85186  1  6
 86187  1  0
 86188  1  0
 86189  1  0
 89190  1  0
 90191  1  6
 91192  1  0
 91193  1  0
 91194  1  0
 94195  1  0
 95196  1  6
 96197  1  0
 96198  1  0
 96199  1  0
 99200  1  0
100201  1  6
102202  1  0
102203  1  0
104204  1  0
104205  1  0
106206  1  0
106207  1  0
M  END
