
     RDKit          3D

197199  0  0  0  0  0  0  0  0999 V2000
   -1.0791   10.5333   -2.2422 C   0  0  0  0  0  0  0  0  0  0  0  0
   -0.5938    9.1177   -2.2988 C   0  0  0  0  0  0  0  0  0  0  0  0
   -0.6563    8.5033   -3.3965 O   0  0  0  0  0  0  0  0  0  0  0  0
   -0.0800    8.4725   -1.1191 N   0  0  0  0  0  0  0  0  0  0  0  0
    0.6336    7.1913   -1.1100 C   0  0  1  0  0  0  0  0  0  0  0  0
   -0.2680    6.0479   -1.5983 C   0  0  0  0  0  0  0  0  0  0  0  0
    0.5230    4.4204   -1.3330 S   0  0  0  0  0  0  0  0  0  0  0  0
   -0.3589    3.9914    0.2139 C   0  0  0  0  0  0  0  0  0  0  0  0
   -1.7760    3.5496   -0.0498 C   0  0  0  0  0  0  0  0  0  0  0  0
   -2.8371    4.0796    0.7060 C   0  0  0  0  0  0  0  0  0  0  0  0
   -4.1358    3.5645    0.5623 C   0  0  0  0  0  0  0  0  0  0  0  0
   -4.3854    2.5520   -0.3742 C   0  0  0  0  0  0  0  0  0  0  0  0
   -3.3329    2.0052   -1.1212 C   0  0  0  0  0  0  0  0  0  0  0  0
   -2.0341    2.5040   -0.9460 C   0  0  0  0  0  0  0  0  0  0  0  0
   -3.5917    0.8575   -2.0637 C   0  0  0  0  0  0  0  0  0  0  0  0
   -4.2484   -0.5916   -1.1592 S   0  0  0  0  0  0  0  0  0  0  0  0
   -2.8128   -1.7039   -1.3822 C   0  0  0  0  0  0  0  0  0  0  0  0
   -3.2391   -3.1650   -1.1389 C   0  0  2  0  0  0  0  0  0  0  0  0
   -2.0617   -4.0419   -1.2018 N   0  0  0  0  0  0  0  0  0  0  0  0
   -1.3362   -4.4093   -0.0193 C   0  0  0  0  0  0  0  0  0  0  0  0
   -0.8614   -3.5033    0.7235 O   0  0  0  0  0  0  0  0  0  0  0  0
   -1.1729   -5.8510    0.3843 C   0  0  1  0  0  0  0  0  0  0  0  0
   -2.5505   -6.4737    0.6579 C   0  0  0  0  0  0  0  0  0  0  0  0
   -0.4831   -6.6179   -0.6595 N   0  0  0  0  0  0  0  0  0  0  0  0
    0.0582   -7.9252   -0.4078 C   0  0  0  0  0  0  0  0  0  0  0  0
   -0.1673   -8.8505   -1.2405 O   0  0  0  0  0  0  0  0  0  0  0  0
    0.8666   -8.2238    0.8301 C   0  0  1  0  0  0  0  0  0  0  0  0
   -0.0108   -8.8351    1.9369 C   0  0  0  0  0  0  0  0  0  0  0  0
    1.9462   -9.1678    0.4916 N   0  0  0  0  0  0  0  0  0  0  0  0
    3.3516   -8.9695    0.7712 C   0  0  0  0  0  0  0  0  0  0  0  0
    4.1288   -9.9598    0.6765 O   0  0  0  0  0  0  0  0  0  0  0  0
    3.9235   -7.6275    1.1661 C   0  0  1  0  0  0  0  0  0  0  0  0
    3.7890   -7.3838    2.6788 C   0  0  0  0  0  0  0  0  0  0  0  0
    5.3041   -7.4978    0.6925 N   0  0  0  0  0  0  0  0  0  0  0  0
    6.4808   -7.7320    1.4933 C   0  0  0  0  0  0  0  0  0  0  0  0
    6.4656   -8.6418    2.3610 O   0  0  0  0  0  0  0  0  0  0  0  0
    7.6693   -6.8115    1.3797 C   0  0  1  0  0  0  0  0  0  0  0  0
    8.9165   -7.3568    2.0740 C   0  0  0  0  0  0  0  0  0  0  0  0
    7.9760   -6.5378   -0.0280 N   0  0  0  0  0  0  0  0  0  0  0  0
    7.6910   -5.2601   -0.6106 C   0  0  0  0  0  0  0  0  0  0  0  0
    6.5517   -4.7422   -0.4443 O   0  0  0  0  0  0  0  0  0  0  0  0
    8.7297   -4.5432   -1.4348 C   0  0  1  0  0  0  0  0  0  0  0  0
    8.5047   -4.7844   -2.9276 C   0  0  0  0  0  0  0  0  0  0  0  0
    8.6882   -3.1144   -1.1418 N   0  0  0  0  0  0  0  0  0  0  0  0
    9.8713   -2.3873   -0.8077 C   0  0  0  0  0  0  0  0  0  0  0  0
   10.7567   -2.1934   -1.6944 O   0  0  0  0  0  0  0  0  0  0  0  0
   10.0653   -1.8764    0.5909 C   0  0  1  0  0  0  0  0  0  0  0  0
   10.4739   -3.0284    1.5102 C   0  0  0  0  0  0  0  0  0  0  0  0
   11.0905   -0.8217    0.6276 N   0  0  0  0  0  0  0  0  0  0  0  0
   10.8381    0.5876    0.4606 C   0  0  0  0  0  0  0  0  0  0  0  0
   11.8310    1.3410    0.2347 O   0  0  0  0  0  0  0  0  0  0  0  0
    9.4730    1.1923    0.7113 C   0  0  1  0  0  0  0  0  0  0  0  0
    9.1285    1.1878    2.2014 C   0  0  0  0  0  0  0  0  0  0  0  0
    9.3543    2.5522    0.1580 N   0  0  0  0  0  0  0  0  0  0  0  0
    9.9779    3.7205    0.7223 C   0  0  0  0  0  0  0  0  0  0  0  0
   11.0449    3.6148    1.3873 O   0  0  0  0  0  0  0  0  0  0  0  0
    9.3275    5.0744    0.5358 C   0  0  1  0  0  0  0  0  0  0  0  0
   10.0102    6.1814    1.3715 C   0  0  0  0  0  0  0  0  0  0  0  0
    9.3355    5.4476   -0.8818 N   0  0  0  0  0  0  0  0  0  0  0  0
    8.2664    6.1362   -1.5543 C   0  0  0  0  0  0  0  0  0  0  0  0
    8.2425    6.1337   -2.8132 O   0  0  0  0  0  0  0  0  0  0  0  0
    7.2020    6.9145   -0.8150 C   0  0  1  0  0  0  0  0  0  0  0  0
    7.3010    8.4076   -1.1598 C   0  0  0  0  0  0  0  0  0  0  0  0
    5.8718    6.4232   -1.1915 N   0  0  0  0  0  0  0  0  0  0  0  0
    4.9242    5.9849   -0.2143 C   0  0  0  0  0  0  0  0  0  0  0  0
    5.2232    5.0167    0.5431 O   0  0  0  0  0  0  0  0  0  0  0  0
    3.5767    6.6552   -0.0555 C   0  0  1  0  0  0  0  0  0  0  0  0
    3.6213    7.6232    1.1255 C   0  0  0  0  0  0  0  0  0  0  0  0
    3.2008    7.3873   -1.2711 N   0  0  0  0  0  0  0  0  0  0  0  0
    1.9172    7.2918   -1.9100 C   0  0  0  0  0  0  0  0  0  0  0  0
    1.8609    7.3949   -3.1644 O   0  0  0  0  0  0  0  0  0  0  0  0
   -4.2599   -3.5979   -2.1889 C   0  0  0  0  0  0  0  0  0  0  0  0
   -3.9162   -3.5910   -3.3960 O   0  0  0  0  0  0  0  0  0  0  0  0
   -5.6267   -3.9276   -1.8773 N   0  0  0  0  0  0  0  0  0  0  0  0
   -6.2656   -3.7701   -0.5721 C   0  0  2  0  0  0  0  0  0  0  0  0
   -6.1447   -5.0869    0.2075 C   0  0  0  0  0  0  0  0  0  0  0  0
   -7.6868   -3.2891   -0.7553 C   0  0  0  0  0  0  0  0  0  0  0  0
   -7.8813   -2.1034   -1.1281 O   0  0  0  0  0  0  0  0  0  0  0  0
   -8.8171   -4.1471   -0.5012 N   0  0  0  0  0  0  0  0  0  0  0  0
   -9.9598   -3.6828    0.3019 C   0  0  2  0  0  0  0  0  0  0  0  0
  -10.8181   -4.8773    0.7419 C   0  0  0  0  0  0  0  0  0  0  0  0
  -10.8048   -2.6893   -0.4500 C   0  0  0  0  0  0  0  0  0  0  0  0
  -10.7273   -2.6238   -1.7128 O   0  0  0  0  0  0  0  0  0  0  0  0
  -11.7423   -1.8705    0.2688 N   0  0  0  0  0  0  0  0  0  0  0  0
  -12.3431   -0.6384   -0.2567 C   0  0  2  0  0  0  0  0  0  0  0  0
  -13.2659   -0.9196   -1.4508 C   0  0  0  0  0  0  0  0  0  0  0  0
  -11.2827    0.3815   -0.5590 C   0  0  0  0  0  0  0  0  0  0  0  0
  -10.9269    0.6093   -1.7480 O   0  0  0  0  0  0  0  0  0  0  0  0
  -10.6524    1.0806    0.5189 N   0  0  0  0  0  0  0  0  0  0  0  0
  -10.9052    2.4946    0.8197 C   0  0  2  0  0  0  0  0  0  0  0  0
  -12.3248    2.6769    1.3693 C   0  0  0  0  0  0  0  0  0  0  0  0
  -10.6639    3.3582   -0.4006 C   0  0  0  0  0  0  0  0  0  0  0  0
  -11.5575    3.4094   -1.2904 O   0  0  0  0  0  0  0  0  0  0  0  0
   -9.4405    4.0835   -0.6215 N   0  0  0  0  0  0  0  0  0  0  0  0
   -8.4494    4.4141    0.4168 C   0  0  2  0  0  0  0  0  0  0  0  0
   -9.0534    5.3893    1.3990 C   0  0  0  0  0  0  0  0  0  0  0  0
   -9.1395    5.0681    2.7847 N   0  0  0  0  0  0  0  0  0  0  0  0
   -9.4988    6.4974    0.9927 O   0  0  0  0  0  0  0  0  0  0  0  0
   -7.1794    4.9946   -0.2459 C   0  0  0  0  0  0  0  0  0  0  0  0
   -5.9386    5.6237    0.9512 S   0  0  0  0  0  0  0  0  0  0  0  0
   -5.2422    4.0165    1.4737 C   0  0  0  0  0  0  0  0  0  0  0  0
   -1.0407   10.9165   -1.2028 H   0  0  0  0  0  0  0  0  0  0  0  0
   -0.4289   11.1703   -2.8789 H   0  0  0  0  0  0  0  0  0  0  0  0
   -2.1243   10.5902   -2.6030 H   0  0  0  0  0  0  0  0  0  0  0  0
   -0.1957    8.9650   -0.2026 H   0  0  0  0  0  0  0  0  0  0  0  0
    0.8737    6.9676   -0.0545 H   0  0  0  0  0  0  0  0  0  0  0  0
   -0.4592    6.1404   -2.6867 H   0  0  0  0  0  0  0  0  0  0  0  0
   -1.2573    6.1016   -1.0891 H   0  0  0  0  0  0  0  0  0  0  0  0
    0.1890    3.1361    0.6656 H   0  0  0  0  0  0  0  0  0  0  0  0
   -0.3053    4.8285    0.9390 H   0  0  0  0  0  0  0  0  0  0  0  0
   -2.6425    4.8630    1.4266 H   0  0  0  0  0  0  0  0  0  0  0  0
   -5.3837    2.1378   -0.4756 H   0  0  0  0  0  0  0  0  0  0  0  0
   -1.2160    2.0767   -1.5154 H   0  0  0  0  0  0  0  0  0  0  0  0
   -2.6667    0.6016   -2.6326 H   0  0  0  0  0  0  0  0  0  0  0  0
   -4.3573    1.1617   -2.8035 H   0  0  0  0  0  0  0  0  0  0  0  0
   -2.3731   -1.6090   -2.3900 H   0  0  0  0  0  0  0  0  0  0  0  0
   -2.0421   -1.4123   -0.6381 H   0  0  0  0  0  0  0  0  0  0  0  0
   -3.6612   -3.2368   -0.1189 H   0  0  0  0  0  0  0  0  0  0  0  0
   -1.7129   -4.3726   -2.1314 H   0  0  0  0  0  0  0  0  0  0  0  0
   -0.5783   -5.8790    1.3283 H   0  0  0  0  0  0  0  0  0  0  0  0
   -2.4528   -7.4984    1.0783 H   0  0  0  0  0  0  0  0  0  0  0  0
   -3.1183   -5.8651    1.3871 H   0  0  0  0  0  0  0  0  0  0  0  0
   -3.1378   -6.5376   -0.2786 H   0  0  0  0  0  0  0  0  0  0  0  0
   -0.7322   -6.4125   -1.6565 H   0  0  0  0  0  0  0  0  0  0  0  0
    1.2790   -7.2749    1.2182 H   0  0  0  0  0  0  0  0  0  0  0  0
    0.6225   -9.3370    2.6972 H   0  0  0  0  0  0  0  0  0  0  0  0
   -0.7235   -9.5779    1.5202 H   0  0  0  0  0  0  0  0  0  0  0  0
   -0.5839   -8.0398    2.4579 H   0  0  0  0  0  0  0  0  0  0  0  0
    1.6610  -10.1168    0.1521 H   0  0  0  0  0  0  0  0  0  0  0  0
    3.3485   -6.8307    0.6450 H   0  0  0  0  0  0  0  0  0  0  0  0
    4.3433   -6.4697    2.9677 H   0  0  0  0  0  0  0  0  0  0  0  0
    2.7276   -7.2277    2.9549 H   0  0  0  0  0  0  0  0  0  0  0  0
    4.1578   -8.2480    3.2673 H   0  0  0  0  0  0  0  0  0  0  0  0
    5.4535   -7.2764   -0.3235 H   0  0  0  0  0  0  0  0  0  0  0  0
    7.3878   -5.8581    1.8868 H   0  0  0  0  0  0  0  0  0  0  0  0
    8.7302   -7.5036    3.1603 H   0  0  0  0  0  0  0  0  0  0  0  0
    9.7540   -6.6394    1.9550 H   0  0  0  0  0  0  0  0  0  0  0  0
    9.2065   -8.3339    1.6311 H   0  0  0  0  0  0  0  0  0  0  0  0
    8.5663   -7.2178   -0.5652 H   0  0  0  0  0  0  0  0  0  0  0  0
    9.7333   -4.9503   -1.1697 H   0  0  0  0  0  0  0  0  0  0  0  0
    7.5047   -4.4198   -3.2501 H   0  0  0  0  0  0  0  0  0  0  0  0
    8.5877   -5.8689   -3.1622 H   0  0  0  0  0  0  0  0  0  0  0  0
    9.2923   -4.2516   -3.5046 H   0  0  0  0  0  0  0  0  0  0  0  0
    7.7986   -2.5780   -1.2867 H   0  0  0  0  0  0  0  0  0  0  0  0
    9.0962   -1.4913    0.9650 H   0  0  0  0  0  0  0  0  0  0  0  0
    9.6828   -3.8045    1.5287 H   0  0  0  0  0  0  0  0  0  0  0  0
   10.6247   -2.6536    2.5481 H   0  0  0  0  0  0  0  0  0  0  0  0
   11.4235   -3.4929    1.1617 H   0  0  0  0  0  0  0  0  0  0  0  0
   12.0907   -1.1243    0.6111 H   0  0  0  0  0  0  0  0  0  0  0  0
    8.7214    0.5664    0.1806 H   0  0  0  0  0  0  0  0  0  0  0  0
    8.1217    1.6343    2.3538 H   0  0  0  0  0  0  0  0  0  0  0  0
    9.8701    1.7691    2.7885 H   0  0  0  0  0  0  0  0  0  0  0  0
    9.1109    0.1523    2.5990 H   0  0  0  0  0  0  0  0  0  0  0  0
    8.5884    2.7207   -0.5297 H   0  0  0  0  0  0  0  0  0  0  0  0
    8.2849    4.9606    0.8963 H   0  0  0  0  0  0  0  0  0  0  0  0
    9.5454    7.1651    1.1624 H   0  0  0  0  0  0  0  0  0  0  0  0
    9.9050    5.9665    2.4575 H   0  0  0  0  0  0  0  0  0  0  0  0
   11.0898    6.2522    1.1153 H   0  0  0  0  0  0  0  0  0  0  0  0
   10.1814    5.1990   -1.4507 H   0  0  0  0  0  0  0  0  0  0  0  0
    7.3279    6.8372    0.2822 H   0  0  0  0  0  0  0  0  0  0  0  0
    7.0221    8.5801   -2.2218 H   0  0  0  0  0  0  0  0  0  0  0  0
    6.6135    8.9923   -0.5110 H   0  0  0  0  0  0  0  0  0  0  0  0
    8.3364    8.7826   -0.9957 H   0  0  0  0  0  0  0  0  0  0  0  0
    5.5819    6.4706   -2.1955 H   0  0  0  0  0  0  0  0  0  0  0  0
    2.8341    5.8594    0.1632 H   0  0  0  0  0  0  0  0  0  0  0  0
    3.9345    7.0937    2.0544 H   0  0  0  0  0  0  0  0  0  0  0  0
    4.3444    8.4482    0.9283 H   0  0  0  0  0  0  0  0  0  0  0  0
    2.6182    8.0717    1.2961 H   0  0  0  0  0  0  0  0  0  0  0  0
    3.8943    8.0364   -1.6970 H   0  0  0  0  0  0  0  0  0  0  0  0
   -6.1749   -4.4050   -2.6304 H   0  0  0  0  0  0  0  0  0  0  0  0
   -5.7631   -2.9789    0.0165 H   0  0  0  0  0  0  0  0  0  0  0  0
   -6.7428   -5.8975   -0.2586 H   0  0  0  0  0  0  0  0  0  0  0  0
   -5.0988   -5.4299    0.1930 H   0  0  0  0  0  0  0  0  0  0  0  0
   -6.4842   -4.9512    1.2575 H   0  0  0  0  0  0  0  0  0  0  0  0
   -8.7462   -5.1568   -0.7451 H   0  0  0  0  0  0  0  0  0  0  0  0
   -9.5604   -3.1866    1.2154 H   0  0  0  0  0  0  0  0  0  0  0  0
  -11.2311   -5.4018   -0.1446 H   0  0  0  0  0  0  0  0  0  0  0  0
  -11.6641   -4.5427    1.3848 H   0  0  0  0  0  0  0  0  0  0  0  0
  -10.1954   -5.5856    1.3325 H   0  0  0  0  0  0  0  0  0  0  0  0
  -11.9405   -2.1197    1.2646 H   0  0  0  0  0  0  0  0  0  0  0  0
  -12.9914   -0.2081    0.5339 H   0  0  0  0  0  0  0  0  0  0  0  0
  -14.0324   -1.6764   -1.1725 H   0  0  0  0  0  0  0  0  0  0  0  0
  -13.7995    0.0173   -1.7364 H   0  0  0  0  0  0  0  0  0  0  0  0
  -12.7031   -1.2733   -2.3337 H   0  0  0  0  0  0  0  0  0  0  0  0
  -10.0216    0.5313    1.1545 H   0  0  0  0  0  0  0  0  0  0  0  0
  -10.2148    2.7880    1.6338 H   0  0  0  0  0  0  0  0  0  0  0  0
  -12.4362    2.1065    2.3160 H   0  0  0  0  0  0  0  0  0  0  0  0
  -13.0833    2.3096    0.6444 H   0  0  0  0  0  0  0  0  0  0  0  0
  -12.5188    3.7499    1.5697 H   0  0  0  0  0  0  0  0  0  0  0  0
   -9.2554    4.3846   -1.6004 H   0  0  0  0  0  0  0  0  0  0  0  0
   -8.1645    3.4806    0.9454 H   0  0  0  0  0  0  0  0  0  0  0  0
   -9.5850    5.7291    3.4586 H   0  0  0  0  0  0  0  0  0  0  0  0
   -8.7847    4.1599    3.1476 H   0  0  0  0  0  0  0  0  0  0  0  0
   -6.7164    4.2261   -0.8966 H   0  0  0  0  0  0  0  0  0  0  0  0
   -7.4682    5.8477   -0.8930 H   0  0  0  0  0  0  0  0  0  0  0  0
   -6.0376    3.2448    1.5367 H   0  0  0  0  0  0  0  0  0  0  0  0
   -4.8504    4.1211    2.5079 H   0  0  0  0  0  0  0  0  0  0  0  0
  1  2  1  0
  2  3  2  0
  2  4  1  0
  4  5  1  0
  5  6  1  0
  6  7  1  0
  7  8  1  0
  8  9  1  0
  9 10  2  0
 10 11  1  0
 11 12  2  0
 12 13  1  0
 13 14  2  0
 13 15  1  0
 15 16  1  0
 16 17  1  0
 17 18  1  0
 18 19  1  0
 19 20  1  0
 20 21  2  0
 20 22  1  0
 22 23  1  0
 22 24  1  0
 24 25  1  0
 25 26  2  0
 25 27  1  0
 27 28  1  0
 27 29  1  0
 29 30  1  0
 30 31  2  0
 30 32  1  0
 32 33  1  0
 32 34  1  0
 34 35  1  0
 35 36  2  0
 35 37  1  0
 37 38  1  0
 37 39  1  0
 39 40  1  0
 40 41  2  0
 40 42  1  0
 42 43  1  0
 42 44  1  0
 44 45  1  0
 45 46  2  0
 45 47  1  0
 47 48  1  0
 47 49  1  0
 49 50  1  0
 50 51  2  0
 50 52  1  0
 52 53  1  0
 52 54  1  0
 54 55  1  0
 55 56  2  0
 55 57  1  0
 57 58  1  0
 57 59  1  0
 59 60  1  0
 60 61  2  0
 60 62  1  0
 62 63  1  0
 62 64  1  0
 64 65  1  0
 65 66  2  0
 65 67  1  0
 67 68  1  0
 67 69  1  0
 69 70  1  0
 70 71  2  0
 18 72  1  0
 72 73  2  0
 72 74  1  0
 74 75  1  0
 75 76  1  0
 75 77  1  0
 77 78  2  0
 77 79  1  0
 79 80  1  0
 80 81  1  0
 80 82  1  0
 82 83  2  0
 82 84  1  0
 84 85  1  0
 85 86  1  0
 85 87  1  0
 87 88  2  0
 87 89  1  0
 89 90  1  0
 90 91  1  0
 90 92  1  0
 92 93  2  0
 92 94  1  0
 94 95  1  0
 95 96  1  0
 96 97  1  0
 96 98  2  0
 95 99  1  0
 99100  1  0
100101  1  0
 70  5  1  0
 14  9  1  0
101 11  1  0
  1102  1  0
  1103  1  0
  1104  1  0
  4105  1  0
  5106  1  1
  6107  1  0
  6108  1  0
  8109  1  0
  8110  1  0
 10111  1  0
 12112  1  0
 14113  1  0
 15114  1  0
 15115  1  0
 17116  1  0
 17117  1  0
 18118  1  1
 19119  1  0
 22120  1  1
 23121  1  0
 23122  1  0
 23123  1  0
 24124  1  0
 27125  1  1
 28126  1  0
 28127  1  0
 28128  1  0
 29129  1  0
 32130  1  6
 33131  1  0
 33132  1  0
 33133  1  0
 34134  1  0
 37135  1  1
 38136  1  0
 38137  1  0
 38138  1  0
 39139  1  0
 42140  1  1
 43141  1  0
 43142  1  0
 43143  1  0
 44144  1  0
 47145  1  1
 48146  1  0
 48147  1  0
 48148  1  0
 49149  1  0
 52150  1  6
 53151  1  0
 53152  1  0
 53153  1  0
 54154  1  0
 57155  1  1
 58156  1  0
 58157  1  0
 58158  1  0
 59159  1  0
 62160  1  1
 63161  1  0
 63162  1  0
 63163  1  0
 64164  1  0
 67165  1  1
 68166  1  0
 68167  1  0
 68168  1  0
 69169  1  0
 74170  1  0
 75171  1  1
 76172  1  0
 76173  1  0
 76174  1  0
 79175  1  0
 80176  1  1
 81177  1  0
 81178  1  0
 81179  1  0
 84180  1  0
 85181  1  1
 86182  1  0
 86183  1  0
 86184  1  0
 89185  1  0
 90186  1  1
 91187  1  0
 91188  1  0
 91189  1  0
 94190  1  0
 95191  1  1
 97192  1  0
 97193  1  0
 99194  1  0
 99195  1  0
101196  1  0
101197  1  0
M  END
