
     RDKit          3D

167169  0  0  0  0  0  0  0  0999 V2000
   11.4186    2.0924   -1.5707 C   0  0  0  0  0  0  0  0  0  0  0  0
   10.5573    2.6106   -0.4593 C   0  0  0  0  0  0  0  0  0  0  0  0
   10.7956    3.7617    0.0168 O   0  0  0  0  0  0  0  0  0  0  0  0
    9.4742    1.8127    0.0406 N   0  0  0  0  0  0  0  0  0  0  0  0
    8.1850    2.3928    0.3749 C   0  0  2  0  0  0  0  0  0  0  0  0
    7.7339    1.9654    1.8098 C   0  0  0  0  0  0  0  0  0  0  0  0
    7.8673    3.3455    3.0503 S   0  0  0  0  0  0  0  0  0  0  0  0
    6.1940    4.0996    3.1430 C   0  0  0  0  0  0  0  0  0  0  0  0
    5.0865    3.2003    2.6683 C   0  0  0  0  0  0  0  0  0  0  0  0
    4.6330    3.3443    1.3572 C   0  0  0  0  0  0  0  0  0  0  0  0
    3.9833    2.3012    0.7209 C   0  0  0  0  0  0  0  0  0  0  0  0
    3.9526    1.0553    1.3828 C   0  0  0  0  0  0  0  0  0  0  0  0
    4.1876    0.9989    2.7720 C   0  0  0  0  0  0  0  0  0  0  0  0
    4.5878    2.1594    3.4433 C   0  0  0  0  0  0  0  0  0  0  0  0
    4.2850   -0.2709    3.5727 C   0  0  0  0  0  0  0  0  0  0  0  0
    3.8558   -1.7948    2.6593 S   0  0  0  0  0  0  0  0  0  0  0  0
    5.5919   -2.3350    2.2405 C   0  0  0  0  0  0  0  0  0  0  0  0
    5.9226   -2.5090    0.7219 C   0  0  2  0  0  0  0  0  0  0  0  0
    6.8963   -1.4879    0.2741 N   0  0  0  0  0  0  0  0  0  0  0  0
    7.5169   -1.4792   -1.0209 C   0  0  0  0  0  0  0  0  0  0  0  0
    7.9663   -2.5570   -1.5000 O   0  0  0  0  0  0  0  0  0  0  0  0
    7.7239   -0.1663   -1.7670 C   0  0  1  0  0  0  0  0  0  0  0  0
    7.4520   -0.3518   -3.2682 C   0  0  0  0  0  0  0  0  0  0  0  0
    6.7991    0.8493   -1.2574 N   0  0  0  0  0  0  0  0  0  0  0  0
    7.1283    2.1634   -0.7203 C   0  0  0  0  0  0  0  0  0  0  0  0
    6.4446    3.1641   -1.0658 O   0  0  0  0  0  0  0  0  0  0  0  0
    4.7109   -2.5798   -0.1849 C   0  0  0  0  0  0  0  0  0  0  0  0
    4.7235   -1.9475   -1.2870 O   0  0  0  0  0  0  0  0  0  0  0  0
    3.4679   -3.2069    0.1867 N   0  0  0  0  0  0  0  0  0  0  0  0
    3.1994   -4.6349    0.4596 C   0  0  2  0  0  0  0  0  0  0  0  0
    3.8550   -5.1604    1.7290 C   0  0  0  0  0  0  0  0  0  0  0  0
    3.5606   -5.5171   -0.7051 C   0  0  0  0  0  0  0  0  0  0  0  0
    4.3558   -5.0978   -1.5852 O   0  0  0  0  0  0  0  0  0  0  0  0
    3.0763   -6.8742   -0.8099 N   0  0  0  0  0  0  0  0  0  0  0  0
    1.8927   -7.4103   -0.1159 C   0  0  2  0  0  0  0  0  0  0  0  0
    2.2542   -8.7170    0.5834 C   0  0  0  0  0  0  0  0  0  0  0  0
    0.8084   -7.6613   -1.1480 C   0  0  0  0  0  0  0  0  0  0  0  0
    1.0931   -8.2656   -2.2200 O   0  0  0  0  0  0  0  0  0  0  0  0
   -0.5363   -7.2087   -0.9625 N   0  0  0  0  0  0  0  0  0  0  0  0
   -1.3575   -7.6481    0.1797 C   0  0  2  0  0  0  0  0  0  0  0  0
   -1.6527   -9.1447    0.0261 C   0  0  0  0  0  0  0  0  0  0  0  0
   -2.6452   -6.8520    0.2403 C   0  0  0  0  0  0  0  0  0  0  0  0
   -3.7206   -7.4035    0.6100 O   0  0  0  0  0  0  0  0  0  0  0  0
   -2.6804   -5.4841   -0.1829 N   0  0  0  0  0  0  0  0  0  0  0  0
   -3.9379   -4.7507   -0.4200 C   0  0  2  0  0  0  0  0  0  0  0  0
   -3.6501   -3.5420   -1.3117 C   0  0  0  0  0  0  0  0  0  0  0  0
   -4.5210   -4.2805    0.8917 C   0  0  0  0  0  0  0  0  0  0  0  0
   -3.7426   -3.8143    1.7712 O   0  0  0  0  0  0  0  0  0  0  0  0
   -5.9445   -4.2701    1.1750 N   0  0  0  0  0  0  0  0  0  0  0  0
   -7.0521   -4.8469    0.4038 C   0  0  2  0  0  0  0  0  0  0  0  0
   -7.0544   -6.3831    0.4716 C   0  0  0  0  0  0  0  0  0  0  0  0
   -7.1103   -4.3234   -1.0289 C   0  0  0  0  0  0  0  0  0  0  0  0
   -7.0188   -5.1213   -1.9942 O   0  0  0  0  0  0  0  0  0  0  0  0
   -7.3282   -2.9335   -1.3120 N   0  0  0  0  0  0  0  0  0  0  0  0
   -8.0174   -2.0212   -0.3874 C   0  0  2  0  0  0  0  0  0  0  0  0
   -9.5235   -2.3176   -0.4183 C   0  0  0  0  0  0  0  0  0  0  0  0
   -7.7591   -0.5783   -0.7369 C   0  0  0  0  0  0  0  0  0  0  0  0
   -7.2379   -0.2691   -1.8388 O   0  0  0  0  0  0  0  0  0  0  0  0
   -8.1355    0.4488    0.1672 N   0  0  0  0  0  0  0  0  0  0  0  0
   -9.3802    1.2027    0.0204 C   0  0  2  0  0  0  0  0  0  0  0  0
   -9.6065    1.7122   -1.4255 C   0  0  0  0  0  0  0  0  0  0  0  0
   -9.4545    2.3515    1.0083 C   0  0  0  0  0  0  0  0  0  0  0  0
  -10.2965    2.2654    1.9452 O   0  0  0  0  0  0  0  0  0  0  0  0
   -8.6610    3.5469    0.8764 N   0  0  0  0  0  0  0  0  0  0  0  0
   -7.3266    3.6143    0.2747 C   0  0  2  0  0  0  0  0  0  0  0  0
   -6.2842    3.6563    1.3859 C   0  0  0  0  0  0  0  0  0  0  0  0
   -7.2377    4.8071   -0.6397 C   0  0  0  0  0  0  0  0  0  0  0  0
   -8.2703    5.4931   -0.9010 O   0  0  0  0  0  0  0  0  0  0  0  0
   -6.0394    5.0790   -1.3647 N   0  0  0  0  0  0  0  0  0  0  0  0
   -4.9944    6.0263   -0.9137 C   0  0  2  0  0  0  0  0  0  0  0  0
   -5.5924    7.3359   -0.3218 C   0  0  0  0  0  0  0  0  0  0  0  0
   -4.0523    6.3668   -2.0484 C   0  0  0  0  0  0  0  0  0  0  0  0
   -4.2458    5.9123   -3.2174 O   0  0  0  0  0  0  0  0  0  0  0  0
   -2.9773    7.2946   -1.8605 N   0  0  0  0  0  0  0  0  0  0  0  0
   -1.7803    6.9756   -1.0664 C   0  0  2  0  0  0  0  0  0  0  0  0
   -1.3827    8.2325   -0.2723 C   0  0  0  0  0  0  0  0  0  0  0  0
   -0.6671    6.4776   -1.9827 C   0  0  0  0  0  0  0  0  0  0  0  0
   -0.9208    6.3480   -3.2057 O   0  0  0  0  0  0  0  0  0  0  0  0
    0.6470    6.0987   -1.5291 N   0  0  0  0  0  0  0  0  0  0  0  0
    1.0652    5.9628   -0.1271 C   0  0  2  0  0  0  0  0  0  0  0  0
    1.6087    7.2808    0.3850 C   0  0  0  0  0  0  0  0  0  0  0  0
    2.4305    8.1171   -0.4498 N   0  0  0  0  0  0  0  0  0  0  0  0
    1.3177    7.6698    1.5406 O   0  0  0  0  0  0  0  0  0  0  0  0
    2.2059    4.9152   -0.0239 C   0  0  0  0  0  0  0  0  0  0  0  0
    1.6846    3.2159   -0.5297 S   0  0  0  0  0  0  0  0  0  0  0  0
    3.3799    2.4983   -0.6452 C   0  0  0  0  0  0  0  0  0  0  0  0
   11.6217    2.9012   -2.3023 H   0  0  0  0  0  0  0  0  0  0  0  0
   12.3569    1.7065   -1.1194 H   0  0  0  0  0  0  0  0  0  0  0  0
   10.9009    1.2587   -2.0977 H   0  0  0  0  0  0  0  0  0  0  0  0
    9.6546    0.7996    0.2124 H   0  0  0  0  0  0  0  0  0  0  0  0
    8.2942    3.4900    0.4216 H   0  0  0  0  0  0  0  0  0  0  0  0
    8.4335    1.1656    2.1738 H   0  0  0  0  0  0  0  0  0  0  0  0
    6.7464    1.4789    1.7965 H   0  0  0  0  0  0  0  0  0  0  0  0
    6.1928    5.0500    2.5679 H   0  0  0  0  0  0  0  0  0  0  0  0
    5.9940    4.3630    4.2059 H   0  0  0  0  0  0  0  0  0  0  0  0
    4.8437    4.2678    0.8097 H   0  0  0  0  0  0  0  0  0  0  0  0
    4.1565    0.1906    0.7911 H   0  0  0  0  0  0  0  0  0  0  0  0
    3.9048    2.5000    4.2037 H   0  0  0  0  0  0  0  0  0  0  0  0
    5.2652   -0.3590    4.0512 H   0  0  0  0  0  0  0  0  0  0  0  0
    3.5763   -0.2316    4.4363 H   0  0  0  0  0  0  0  0  0  0  0  0
    6.3499   -1.6600    2.7115 H   0  0  0  0  0  0  0  0  0  0  0  0
    5.7460   -3.2983    2.7509 H   0  0  0  0  0  0  0  0  0  0  0  0
    6.4294   -3.5120    0.6176 H   0  0  0  0  0  0  0  0  0  0  0  0
    7.4620   -0.9647    1.0017 H   0  0  0  0  0  0  0  0  0  0  0  0
    8.7797    0.1493   -1.6684 H   0  0  0  0  0  0  0  0  0  0  0  0
    6.4197   -0.7118   -3.4278 H   0  0  0  0  0  0  0  0  0  0  0  0
    8.1454   -1.0880   -3.7020 H   0  0  0  0  0  0  0  0  0  0  0  0
    7.5628    0.6231   -3.7750 H   0  0  0  0  0  0  0  0  0  0  0  0
    5.8189    0.7342   -1.6076 H   0  0  0  0  0  0  0  0  0  0  0  0
    2.6169   -2.6081    0.0601 H   0  0  0  0  0  0  0  0  0  0  0  0
    2.1072   -4.6899    0.6002 H   0  0  0  0  0  0  0  0  0  0  0  0
    4.9525   -5.3051    1.5770 H   0  0  0  0  0  0  0  0  0  0  0  0
    3.4376   -6.1540    2.0201 H   0  0  0  0  0  0  0  0  0  0  0  0
    3.6987   -4.4897    2.5954 H   0  0  0  0  0  0  0  0  0  0  0  0
    3.5944   -7.5084   -1.4521 H   0  0  0  0  0  0  0  0  0  0  0  0
    1.4921   -6.7352    0.6617 H   0  0  0  0  0  0  0  0  0  0  0  0
    2.4856   -9.5290   -0.1278 H   0  0  0  0  0  0  0  0  0  0  0  0
    3.1565   -8.5679    1.2276 H   0  0  0  0  0  0  0  0  0  0  0  0
    1.4335   -9.0326    1.2682 H   0  0  0  0  0  0  0  0  0  0  0  0
   -1.0433   -6.9392   -1.8384 H   0  0  0  0  0  0  0  0  0  0  0  0
   -0.8099   -7.4874    1.1328 H   0  0  0  0  0  0  0  0  0  0  0  0
   -2.2479   -9.3271   -0.9002 H   0  0  0  0  0  0  0  0  0  0  0  0
   -2.2120   -9.5269    0.9041 H   0  0  0  0  0  0  0  0  0  0  0  0
   -0.7014   -9.7222   -0.0607 H   0  0  0  0  0  0  0  0  0  0  0  0
   -1.7730   -5.0041   -0.3711 H   0  0  0  0  0  0  0  0  0  0  0  0
   -4.6366   -5.4065   -0.9611 H   0  0  0  0  0  0  0  0  0  0  0  0
   -3.1458   -3.8781   -2.2453 H   0  0  0  0  0  0  0  0  0  0  0  0
   -4.5989   -3.0351   -1.6163 H   0  0  0  0  0  0  0  0  0  0  0  0
   -3.0003   -2.8129   -0.8128 H   0  0  0  0  0  0  0  0  0  0  0  0
   -6.2055   -3.8198    2.0895 H   0  0  0  0  0  0  0  0  0  0  0  0
   -7.9989   -4.5394    0.9063 H   0  0  0  0  0  0  0  0  0  0  0  0
   -6.1293   -6.8242    0.0565 H   0  0  0  0  0  0  0  0  0  0  0  0
   -7.9255   -6.7734   -0.0866 H   0  0  0  0  0  0  0  0  0  0  0  0
   -7.1286   -6.7025    1.5332 H   0  0  0  0  0  0  0  0  0  0  0  0
   -7.2323   -2.6533   -2.3164 H   0  0  0  0  0  0  0  0  0  0  0  0
   -7.6456   -2.1880    0.6523 H   0  0  0  0  0  0  0  0  0  0  0  0
   -9.7333   -3.4039   -0.3584 H   0  0  0  0  0  0  0  0  0  0  0  0
   -9.9814   -1.9235   -1.3688 H   0  0  0  0  0  0  0  0  0  0  0  0
  -10.0276   -1.8235    0.4410 H   0  0  0  0  0  0  0  0  0  0  0  0
   -7.5347    0.5815    1.0116 H   0  0  0  0  0  0  0  0  0  0  0  0
  -10.2296    0.5117    0.2413 H   0  0  0  0  0  0  0  0  0  0  0  0
   -8.7037    2.2071   -1.8274 H   0  0  0  0  0  0  0  0  0  0  0  0
  -10.4522    2.4199   -1.4586 H   0  0  0  0  0  0  0  0  0  0  0  0
   -9.8609    0.8583   -2.0882 H   0  0  0  0  0  0  0  0  0  0  0  0
   -8.9791    4.3666    1.4366 H   0  0  0  0  0  0  0  0  0  0  0  0
   -7.1148    2.7130   -0.3448 H   0  0  0  0  0  0  0  0  0  0  0  0
   -6.3342    4.6291    1.9329 H   0  0  0  0  0  0  0  0  0  0  0  0
   -6.4823    2.8348    2.1218 H   0  0  0  0  0  0  0  0  0  0  0  0
   -5.2578    3.5109    0.9804 H   0  0  0  0  0  0  0  0  0  0  0  0
   -5.7975    4.3844   -2.1180 H   0  0  0  0  0  0  0  0  0  0  0  0
   -4.4038    5.5185   -0.1116 H   0  0  0  0  0  0  0  0  0  0  0  0
   -5.0368    7.5951    0.5999 H   0  0  0  0  0  0  0  0  0  0  0  0
   -5.4897    8.1853   -1.0349 H   0  0  0  0  0  0  0  0  0  0  0  0
   -6.6547    7.2428   -0.0520 H   0  0  0  0  0  0  0  0  0  0  0  0
   -2.8841    8.0552   -2.5652 H   0  0  0  0  0  0  0  0  0  0  0  0
   -2.0252    6.1655   -0.3440 H   0  0  0  0  0  0  0  0  0  0  0  0
   -0.6065    8.8323   -0.7793 H   0  0  0  0  0  0  0  0  0  0  0  0
   -1.0339    7.9457    0.7417 H   0  0  0  0  0  0  0  0  0  0  0  0
   -2.2668    8.8867   -0.1091 H   0  0  0  0  0  0  0  0  0  0  0  0
    1.3229    5.8611   -2.2848 H   0  0  0  0  0  0  0  0  0  0  0  0
    0.2184    5.6267    0.4938 H   0  0  0  0  0  0  0  0  0  0  0  0
    2.8230    9.0031   -0.0532 H   0  0  0  0  0  0  0  0  0  0  0  0
    2.6828    7.8395   -1.4113 H   0  0  0  0  0  0  0  0  0  0  0  0
    3.0510    5.2334   -0.6383 H   0  0  0  0  0  0  0  0  0  0  0  0
    2.4905    4.8491    1.0495 H   0  0  0  0  0  0  0  0  0  0  0  0
    4.0347    3.1681   -1.2657 H   0  0  0  0  0  0  0  0  0  0  0  0
    3.2915    1.5278   -1.1609 H   0  0  0  0  0  0  0  0  0  0  0  0
  1  2  1  0
  2  3  2  0
  2  4  1  0
  4  5  1  0
  5  6  1  0
  6  7  1  0
  7  8  1  0
  8  9  1  0
  9 10  1  0
 10 11  2  0
 11 12  1  0
 12 13  2  0
 13 14  1  0
 13 15  1  0
 15 16  1  0
 16 17  1  0
 17 18  1  0
 18 19  1  0
 19 20  1  0
 20 21  2  0
 20 22  1  0
 22 23  1  0
 22 24  1  0
 24 25  1  0
 25 26  2  0
 18 27  1  0
 27 28  2  0
 27 29  1  0
 29 30  1  0
 30 31  1  0
 30 32  1  0
 32 33  2  0
 32 34  1  0
 34 35  1  0
 35 36  1  0
 35 37  1  0
 37 38  2  0
 37 39  1  0
 39 40  1  0
 40 41  1  0
 40 42  1  0
 42 43  2  0
 42 44  1  0
 44 45  1  0
 45 46  1  0
 45 47  1  0
 47 48  2  0
 47 49  1  0
 49 50  1  0
 50 51  1  0
 50 52  1  0
 52 53  2  0
 52 54  1  0
 54 55  1  0
 55 56  1  0
 55 57  1  0
 57 58  2  0
 57 59  1  0
 59 60  1  0
 60 61  1  0
 60 62  1  0
 62 63  2  0
 62 64  1  0
 64 65  1  0
 65 66  1  0
 65 67  1  0
 67 68  2  0
 67 69  1  0
 69 70  1  0
 70 71  1  0
 70 72  1  0
 72 73  2  0
 72 74  1  0
 74 75  1  0
 75 76  1  0
 75 77  1  0
 77 78  2  0
 77 79  1  0
 79 80  1  0
 80 81  1  0
 81 82  1  0
 81 83  2  0
 80 84  1  0
 84 85  1  0
 85 86  1  0
 25  5  1  0
 14  9  2  0
 86 11  1  0
  1 87  1  0
  1 88  1  0
  1 89  1  0
  4 90  1  0
  5 91  1  1
  6 92  1  0
  6 93  1  0
  8 94  1  0
  8 95  1  0
 10 96  1  0
 12 97  1  0
 14 98  1  0
 15 99  1  0
 15100  1  0
 17101  1  0
 17102  1  0
 18103  1  1
 19104  1  0
 22105  1  6
 23106  1  0
 23107  1  0
 23108  1  0
 24109  1  0
 29110  1  0
 30111  1  1
 31112  1  0
 31113  1  0
 31114  1  0
 34115  1  0
 35116  1  1
 36117  1  0
 36118  1  0
 36119  1  0
 39120  1  0
 40121  1  1
 41122  1  0
 41123  1  0
 41124  1  0
 44125  1  0
 45126  1  6
 46127  1  0
 46128  1  0
 46129  1  0
 49130  1  0
 50131  1  1
 51132  1  0
 51133  1  0
 51134  1  0
 54135  1  0
 55136  1  1
 56137  1  0
 56138  1  0
 56139  1  0
 59140  1  0
 60141  1  1
 61142  1  0
 61143  1  0
 61144  1  0
 64145  1  0
 65146  1  6
 66147  1  0
 66148  1  0
 66149  1  0
 69150  1  0
 70151  1  1
 71152  1  0
 71153  1  0
 71154  1  0
 74155  1  0
 75156  1  1
 76157  1  0
 76158  1  0
 76159  1  0
 79160  1  0
 80161  1  1
 82162  1  0
 82163  1  0
 84164  1  0
 84165  1  0
 86166  1  0
 86167  1  0
M  END
