
     RDKit          3D

227229  0  0  0  0  0  0  0  0999 V2000
   -2.5241    7.3745   -4.0592 C   0  0  0  0  0  0  0  0  0  0  0  0
   -3.2081    7.0342   -2.7708 C   0  0  0  0  0  0  0  0  0  0  0  0
   -4.2338    7.6771   -2.4153 O   0  0  0  0  0  0  0  0  0  0  0  0
   -2.7104    5.9517   -1.9724 N   0  0  0  0  0  0  0  0  0  0  0  0
   -3.0028    5.7527   -0.5449 C   0  0  1  0  0  0  0  0  0  0  0  0
   -1.8961    4.8757    0.1052 C   0  0  0  0  0  0  0  0  0  0  0  0
   -0.2650    5.7199    0.2620 S   0  0  0  0  0  0  0  0  0  0  0  0
    0.5431    5.0613   -1.2452 C   0  0  0  0  0  0  0  0  0  0  0  0
    1.4537    3.9172   -0.8958 C   0  0  0  0  0  0  0  0  0  0  0  0
    2.5872    4.1273   -0.0871 C   0  0  0  0  0  0  0  0  0  0  0  0
    3.4474    3.0627    0.2324 C   0  0  0  0  0  0  0  0  0  0  0  0
    3.1833    1.7840   -0.2858 C   0  0  0  0  0  0  0  0  0  0  0  0
    2.0575    1.5597   -1.0965 C   0  0  0  0  0  0  0  0  0  0  0  0
    1.2031    2.6319   -1.3969 C   0  0  0  0  0  0  0  0  0  0  0  0
    1.7383    0.1893   -1.6231 C   0  0  0  0  0  0  0  0  0  0  0  0
    0.3690   -0.5521   -0.6579 S   0  0  0  0  0  0  0  0  0  0  0  0
    1.3389   -1.0310    0.8237 C   0  0  0  0  0  0  0  0  0  0  0  0
    1.2639   -2.5451    1.0461 C   0  0  2  0  0  0  0  0  0  0  0  0
   -0.0937   -2.9463    1.4473 N   0  0  0  0  0  0  0  0  0  0  0  0
   -0.5042   -4.3183    1.4257 C   0  0  0  0  0  0  0  0  0  0  0  0
   -0.4232   -4.9902    2.4910 O   0  0  0  0  0  0  0  0  0  0  0  0
   -1.1894   -4.9229    0.2222 C   0  0  1  0  0  0  0  0  0  0  0  0
   -0.7076   -4.3219   -1.0994 C   0  0  0  0  0  0  0  0  0  0  0  0
   -0.9556   -6.3761    0.2003 N   0  0  0  0  0  0  0  0  0  0  0  0
   -1.9526   -7.4176    0.2308 C   0  0  0  0  0  0  0  0  0  0  0  0
   -1.5573   -8.6163    0.1774 O   0  0  0  0  0  0  0  0  0  0  0  0
   -3.4567   -7.1754    0.3095 C   0  0  1  0  0  0  0  0  0  0  0  0
   -3.8572   -6.4557    1.6044 C   0  0  0  0  0  0  0  0  0  0  0  0
   -3.9296   -6.4630   -0.8850 N   0  0  0  0  0  0  0  0  0  0  0  0
   -5.3030   -6.3102   -1.2864 C   0  0  0  0  0  0  0  0  0  0  0  0
   -5.6348   -5.2604   -1.9072 O   0  0  0  0  0  0  0  0  0  0  0  0
   -6.3655   -7.3723   -1.1003 C   0  0  1  0  0  0  0  0  0  0  0  0
   -5.9673   -8.6851   -1.7955 C   0  0  0  0  0  0  0  0  0  0  0  0
   -6.6628   -7.6001    0.3169 N   0  0  0  0  0  0  0  0  0  0  0  0
   -7.9100   -7.2063    0.9113 C   0  0  0  0  0  0  0  0  0  0  0  0
   -8.6164   -8.0909    1.4671 O   0  0  0  0  0  0  0  0  0  0  0  0
   -8.3752   -5.7645    0.9673 C   0  0  1  0  0  0  0  0  0  0  0  0
   -7.2543   -4.8013    1.3485 C   0  0  0  0  0  0  0  0  0  0  0  0
   -8.9900   -5.3610   -0.2996 N   0  0  0  0  0  0  0  0  0  0  0  0
  -10.3983   -5.3850   -0.5943 C   0  0  0  0  0  0  0  0  0  0  0  0
  -10.7607   -5.5580   -1.7890 O   0  0  0  0  0  0  0  0  0  0  0  0
  -11.4789   -5.1985    0.4470 C   0  0  1  0  0  0  0  0  0  0  0  0
  -11.8596   -6.5402    1.0812 C   0  0  0  0  0  0  0  0  0  0  0  0
  -11.0908   -4.2122    1.4661 N   0  0  0  0  0  0  0  0  0  0  0  0
  -10.8788   -2.8202    1.1896 C   0  0  0  0  0  0  0  0  0  0  0  0
  -10.2122   -2.1315    2.0164 O   0  0  0  0  0  0  0  0  0  0  0  0
  -11.4965   -2.1307   -0.0093 C   0  0  1  0  0  0  0  0  0  0  0  0
  -12.9695   -1.8309    0.3047 C   0  0  0  0  0  0  0  0  0  0  0  0
  -10.7351   -0.9186   -0.3368 N   0  0  0  0  0  0  0  0  0  0  0  0
  -11.3038    0.2094   -1.0181 C   0  0  0  0  0  0  0  0  0  0  0  0
  -11.2827    0.2404   -2.2797 O   0  0  0  0  0  0  0  0  0  0  0  0
  -11.8814    1.3636   -0.2288 C   0  0  1  0  0  0  0  0  0  0  0  0
  -10.8667    1.8147    0.8343 C   0  0  0  0  0  0  0  0  0  0  0  0
  -12.2695    2.4661   -1.1221 N   0  0  0  0  0  0  0  0  0  0  0  0
  -12.5055    3.7922   -0.6460 C   0  0  0  0  0  0  0  0  0  0  0  0
  -13.6820    4.1546   -0.3709 O   0  0  0  0  0  0  0  0  0  0  0  0
  -11.3781    4.7928   -0.5882 C   0  0  1  0  0  0  0  0  0  0  0  0
  -11.5677    5.8179   -1.7152 C   0  0  0  0  0  0  0  0  0  0  0  0
  -11.3459    5.4482    0.7304 N   0  0  0  0  0  0  0  0  0  0  0  0
  -10.2869    6.2675    1.2568 C   0  0  0  0  0  0  0  0  0  0  0  0
  -10.4406    6.7893    2.3965 O   0  0  0  0  0  0  0  0  0  0  0  0
   -9.0318    6.5999    0.4779 C   0  0  1  0  0  0  0  0  0  0  0  0
   -9.0857    8.0646    0.0254 C   0  0  0  0  0  0  0  0  0  0  0  0
   -7.8392    6.3875    1.3087 N   0  0  0  0  0  0  0  0  0  0  0  0
   -6.5187    6.3414    0.7422 C   0  0  0  0  0  0  0  0  0  0  0  0
   -6.3657    6.0308   -0.4706 O   0  0  0  0  0  0  0  0  0  0  0  0
   -5.3224    6.6285    1.6052 C   0  0  1  0  0  0  0  0  0  0  0  0
   -4.7294    5.3597    2.2333 C   0  0  0  0  0  0  0  0  0  0  0  0
   -4.3393    7.4723    0.9056 N   0  0  0  0  0  0  0  0  0  0  0  0
   -3.1543    7.0809    0.1813 C   0  0  0  0  0  0  0  0  0  0  0  0
   -2.2348    7.9365    0.0615 O   0  0  0  0  0  0  0  0  0  0  0  0
    2.2667   -2.9531    2.1067 C   0  0  0  0  0  0  0  0  0  0  0  0
    1.9853   -2.7325    3.3180 O   0  0  0  0  0  0  0  0  0  0  0  0
    3.5558   -3.5172    1.7913 N   0  0  0  0  0  0  0  0  0  0  0  0
    4.0013   -3.8960    0.4436 C   0  0  2  0  0  0  0  0  0  0  0  0
    3.3870   -5.2547    0.0569 C   0  0  0  0  0  0  0  0  0  0  0  0
    5.5155   -3.8869    0.3580 C   0  0  0  0  0  0  0  0  0  0  0  0
    6.1268   -2.7911    0.4726 O   0  0  0  0  0  0  0  0  0  0  0  0
    6.2648   -5.0829    0.0653 N   0  0  0  0  0  0  0  0  0  0  0  0
    7.4353   -5.0725   -0.8341 C   0  0  2  0  0  0  0  0  0  0  0  0
    7.0398   -4.4879   -2.1988 C   0  0  0  0  0  0  0  0  0  0  0  0
    7.9386   -6.4848   -1.0327 C   0  0  0  0  0  0  0  0  0  0  0  0
    7.1174   -7.3664   -1.3896 O   0  0  0  0  0  0  0  0  0  0  0  0
    9.3224   -6.8681   -0.8861 N   0  0  0  0  0  0  0  0  0  0  0  0
   10.3968   -6.1172   -0.2230 C   0  0  2  0  0  0  0  0  0  0  0  0
   10.1006   -5.9115    1.2653 C   0  0  0  0  0  0  0  0  0  0  0  0
   10.7455   -4.8531   -0.9771 C   0  0  0  0  0  0  0  0  0  0  0  0
   10.8597   -4.8895   -2.2290 O   0  0  0  0  0  0  0  0  0  0  0  0
   11.0754   -3.6543   -0.2671 N   0  0  0  0  0  0  0  0  0  0  0  0
   12.3269   -2.9275   -0.5058 C   0  0  2  0  0  0  0  0  0  0  0  0
   13.5235   -3.8973   -0.5408 C   0  0  0  0  0  0  0  0  0  0  0  0
   12.5094   -1.8717    0.5626 C   0  0  0  0  0  0  0  0  0  0  0  0
   13.3400   -2.0412    1.4940 O   0  0  0  0  0  0  0  0  0  0  0  0
   11.6459   -0.7243    0.5900 N   0  0  0  0  0  0  0  0  0  0  0  0
   12.0049    0.5703   -0.0054 C   0  0  2  0  0  0  0  0  0  0  0  0
   12.6057    0.4174   -1.4042 C   0  0  0  0  0  0  0  0  0  0  0  0
   12.9619    1.3186    0.8938 C   0  0  0  0  0  0  0  0  0  0  0  0
   14.0107    0.7418    1.2974 O   0  0  0  0  0  0  0  0  0  0  0  0
   12.7104    2.6682    1.3138 N   0  0  0  0  0  0  0  0  0  0  0  0
   12.2755    3.7173    0.3814 C   0  0  2  0  0  0  0  0  0  0  0  0
   13.5055    4.2633   -0.3527 C   0  0  0  0  0  0  0  0  0  0  0  0
   11.5819    4.8449    1.1150 C   0  0  0  0  0  0  0  0  0  0  0  0
   11.6155    4.8851    2.3780 O   0  0  0  0  0  0  0  0  0  0  0  0
   10.9459    5.9235    0.4135 N   0  0  0  0  0  0  0  0  0  0  0  0
    9.9534    5.7336   -0.6502 C   0  0  2  0  0  0  0  0  0  0  0  0
   10.6306    5.6347   -2.0248 C   0  0  0  0  0  0  0  0  0  0  0  0
    8.9720    6.8939   -0.6338 C   0  0  0  0  0  0  0  0  0  0  0  0
    9.2713    7.9555   -1.2437 O   0  0  0  0  0  0  0  0  0  0  0  0
    7.7479    6.8718    0.1232 N   0  0  0  0  0  0  0  0  0  0  0  0
    7.1862    5.6895    0.7936 C   0  0  1  0  0  0  0  0  0  0  0  0
    6.3207    6.1243    1.9544 C   0  0  0  0  0  0  0  0  0  0  0  0
    5.1925    6.9745    1.7536 N   0  0  0  0  0  0  0  0  0  0  0  0
    6.5903    5.7207    3.1183 O   0  0  0  0  0  0  0  0  0  0  0  0
    6.3836    4.8385   -0.2180 C   0  0  0  0  0  0  0  0  0  0  0  0
    6.2145    3.0990    0.3431 S   0  0  0  0  0  0  0  0  0  0  0  0
    4.5988    3.2665    1.1862 C   0  0  0  0  0  0  0  0  0  0  0  0
   -2.9548    8.2986   -4.4953 H   0  0  0  0  0  0  0  0  0  0  0  0
   -1.4450    7.5343   -3.8707 H   0  0  0  0  0  0  0  0  0  0  0  0
   -2.6461    6.5352   -4.7764 H   0  0  0  0  0  0  0  0  0  0  0  0
   -2.3310    5.1348   -2.5048 H   0  0  0  0  0  0  0  0  0  0  0  0
   -3.9535    5.1908   -0.4968 H   0  0  0  0  0  0  0  0  0  0  0  0
   -2.2132    4.5969    1.1336 H   0  0  0  0  0  0  0  0  0  0  0  0
   -1.7939    3.9173   -0.4482 H   0  0  0  0  0  0  0  0  0  0  0  0
   -0.2022    4.7504   -2.0013 H   0  0  0  0  0  0  0  0  0  0  0  0
    1.1430    5.8761   -1.7086 H   0  0  0  0  0  0  0  0  0  0  0  0
    2.7742    5.1108    0.3306 H   0  0  0  0  0  0  0  0  0  0  0  0
    3.8468    0.9612   -0.0384 H   0  0  0  0  0  0  0  0  0  0  0  0
    0.3266    2.4612   -2.0095 H   0  0  0  0  0  0  0  0  0  0  0  0
    2.6254   -0.4853   -1.6122 H   0  0  0  0  0  0  0  0  0  0  0  0
    1.4088    0.2792   -2.6856 H   0  0  0  0  0  0  0  0  0  0  0  0
    2.4007   -0.7374    0.7228 H   0  0  0  0  0  0  0  0  0  0  0  0
    0.9220   -0.4960    1.6993 H   0  0  0  0  0  0  0  0  0  0  0  0
    1.4978   -3.0343    0.0834 H   0  0  0  0  0  0  0  0  0  0  0  0
   -0.6060   -2.3329    2.1203 H   0  0  0  0  0  0  0  0  0  0  0  0
   -2.2582   -4.6879    0.3092 H   0  0  0  0  0  0  0  0  0  0  0  0
   -1.2505   -4.7870   -1.9446 H   0  0  0  0  0  0  0  0  0  0  0  0
    0.3750   -4.5095   -1.2598 H   0  0  0  0  0  0  0  0  0  0  0  0
   -0.9052   -3.2315   -1.1291 H   0  0  0  0  0  0  0  0  0  0  0  0
    0.0403   -6.6846    0.1618 H   0  0  0  0  0  0  0  0  0  0  0  0
   -3.9225   -8.1796    0.3350 H   0  0  0  0  0  0  0  0  0  0  0  0
   -4.8224   -6.8485    1.9795 H   0  0  0  0  0  0  0  0  0  0  0  0
   -3.1102   -6.6250    2.4050 H   0  0  0  0  0  0  0  0  0  0  0  0
   -3.9920   -5.3665    1.4561 H   0  0  0  0  0  0  0  0  0  0  0  0
   -3.2423   -5.9028   -1.4273 H   0  0  0  0  0  0  0  0  0  0  0  0
   -7.2916   -7.0431   -1.6148 H   0  0  0  0  0  0  0  0  0  0  0  0
   -5.8202   -8.5031   -2.8817 H   0  0  0  0  0  0  0  0  0  0  0  0
   -5.0364   -9.1109   -1.3762 H   0  0  0  0  0  0  0  0  0  0  0  0
   -6.7834   -9.4321   -1.6767 H   0  0  0  0  0  0  0  0  0  0  0  0
   -6.1689   -8.3907    0.7915 H   0  0  0  0  0  0  0  0  0  0  0  0
   -9.1098   -5.7038    1.7915 H   0  0  0  0  0  0  0  0  0  0  0  0
   -6.7817   -5.1166    2.3038 H   0  0  0  0  0  0  0  0  0  0  0  0
   -7.6747   -3.7789    1.4821 H   0  0  0  0  0  0  0  0  0  0  0  0
   -6.4758   -4.7547    0.5604 H   0  0  0  0  0  0  0  0  0  0  0  0
   -8.3571   -5.1400   -1.1002 H   0  0  0  0  0  0  0  0  0  0  0  0
  -12.4004   -4.8299   -0.0572 H   0  0  0  0  0  0  0  0  0  0  0  0
  -12.6711   -6.3872    1.8269 H   0  0  0  0  0  0  0  0  0  0  0  0
  -12.2283   -7.2388    0.2993 H   0  0  0  0  0  0  0  0  0  0  0  0
  -10.9980   -7.0065    1.5950 H   0  0  0  0  0  0  0  0  0  0  0  0
  -10.9436   -4.5345    2.4485 H   0  0  0  0  0  0  0  0  0  0  0  0
  -11.4558   -2.8010   -0.8925 H   0  0  0  0  0  0  0  0  0  0  0  0
  -13.5178   -2.7718    0.5219 H   0  0  0  0  0  0  0  0  0  0  0  0
  -13.0518   -1.1640    1.1891 H   0  0  0  0  0  0  0  0  0  0  0  0
  -13.4631   -1.3494   -0.5662 H   0  0  0  0  0  0  0  0  0  0  0  0
   -9.7029   -1.0364   -0.4653 H   0  0  0  0  0  0  0  0  0  0  0  0
  -12.7938    1.0128    0.2951 H   0  0  0  0  0  0  0  0  0  0  0  0
  -10.6299    0.9724    1.5202 H   0  0  0  0  0  0  0  0  0  0  0  0
  -11.2836    2.6342    1.4554 H   0  0  0  0  0  0  0  0  0  0  0  0
   -9.9216    2.1511    0.3548 H   0  0  0  0  0  0  0  0  0  0  0  0
  -12.8526    2.2026   -1.9506 H   0  0  0  0  0  0  0  0  0  0  0  0
  -10.4260    4.2489   -0.7541 H   0  0  0  0  0  0  0  0  0  0  0  0
  -12.4081    6.5033   -1.4820 H   0  0  0  0  0  0  0  0  0  0  0  0
  -10.6491    6.4159   -1.8736 H   0  0  0  0  0  0  0  0  0  0  0  0
  -11.7892    5.3009   -2.6743 H   0  0  0  0  0  0  0  0  0  0  0  0
  -12.1538    5.2931    1.3790 H   0  0  0  0  0  0  0  0  0  0  0  0
   -8.9514    5.9430   -0.4119 H   0  0  0  0  0  0  0  0  0  0  0  0
   -9.0550    8.7400    0.9081 H   0  0  0  0  0  0  0  0  0  0  0  0
   -8.2213    8.2984   -0.6303 H   0  0  0  0  0  0  0  0  0  0  0  0
  -10.0230    8.2700   -0.5345 H   0  0  0  0  0  0  0  0  0  0  0  0
   -7.9140    6.5163    2.3470 H   0  0  0  0  0  0  0  0  0  0  0  0
   -5.6846    7.2305    2.4707 H   0  0  0  0  0  0  0  0  0  0  0  0
   -5.4179    4.9874    3.0216 H   0  0  0  0  0  0  0  0  0  0  0  0
   -4.6136    4.5394    1.4990 H   0  0  0  0  0  0  0  0  0  0  0  0
   -3.7581    5.5899    2.7141 H   0  0  0  0  0  0  0  0  0  0  0  0
   -4.4348    8.4970    1.0831 H   0  0  0  0  0  0  0  0  0  0  0  0
    4.2105   -3.6881    2.5909 H   0  0  0  0  0  0  0  0  0  0  0  0
    3.6608   -3.1350   -0.2923 H   0  0  0  0  0  0  0  0  0  0  0  0
    3.7631   -5.5849   -0.9354 H   0  0  0  0  0  0  0  0  0  0  0  0
    2.2855   -5.1744   -0.0044 H   0  0  0  0  0  0  0  0  0  0  0  0
    3.6198   -6.0225    0.8221 H   0  0  0  0  0  0  0  0  0  0  0  0
    5.8850   -5.9987    0.3947 H   0  0  0  0  0  0  0  0  0  0  0  0
    8.2099   -4.4167   -0.3994 H   0  0  0  0  0  0  0  0  0  0  0  0
    6.7712   -3.4133   -2.0985 H   0  0  0  0  0  0  0  0  0  0  0  0
    7.8983   -4.5577   -2.9049 H   0  0  0  0  0  0  0  0  0  0  0  0
    6.1725   -5.0318   -2.6249 H   0  0  0  0  0  0  0  0  0  0  0  0
    9.5755   -7.8230   -1.2319 H   0  0  0  0  0  0  0  0  0  0  0  0
   11.3158   -6.7450   -0.2679 H   0  0  0  0  0  0  0  0  0  0  0  0
   10.9732   -5.4378    1.7661 H   0  0  0  0  0  0  0  0  0  0  0  0
    9.2031   -5.2838    1.4268 H   0  0  0  0  0  0  0  0  0  0  0  0
    9.9338   -6.8976    1.7477 H   0  0  0  0  0  0  0  0  0  0  0  0
   10.2987   -3.1761    0.2627 H   0  0  0  0  0  0  0  0  0  0  0  0
   12.2787   -2.4244   -1.4992 H   0  0  0  0  0  0  0  0  0  0  0  0
   13.5542   -4.5117    0.3848 H   0  0  0  0  0  0  0  0  0  0  0  0
   14.4794   -3.3363   -0.6362 H   0  0  0  0  0  0  0  0  0  0  0  0
   13.4443   -4.5776   -1.4150 H   0  0  0  0  0  0  0  0  0  0  0  0
   10.9481   -0.6985    1.3633 H   0  0  0  0  0  0  0  0  0  0  0  0
   11.0652    1.1498   -0.1067 H   0  0  0  0  0  0  0  0  0  0  0  0
   11.8918   -0.1179   -2.0675 H   0  0  0  0  0  0  0  0  0  0  0  0
   13.5648   -0.1434   -1.3649 H   0  0  0  0  0  0  0  0  0  0  0  0
   12.8028    1.4170   -1.8498 H   0  0  0  0  0  0  0  0  0  0  0  0
   13.2395    2.9820    2.1577 H   0  0  0  0  0  0  0  0  0  0  0  0
   11.5636    3.2979   -0.3530 H   0  0  0  0  0  0  0  0  0  0  0  0
   14.2361    4.6733    0.3768 H   0  0  0  0  0  0  0  0  0  0  0  0
   13.2275    5.0666   -1.0643 H   0  0  0  0  0  0  0  0  0  0  0  0
   13.9977    3.4464   -0.9210 H   0  0  0  0  0  0  0  0  0  0  0  0
   10.9875    6.8555    0.8881 H   0  0  0  0  0  0  0  0  0  0  0  0
    9.4051    4.7795   -0.4847 H   0  0  0  0  0  0  0  0  0  0  0  0
    9.8670    5.6551   -2.8336 H   0  0  0  0  0  0  0  0  0  0  0  0
   11.1810    4.6774   -2.1317 H   0  0  0  0  0  0  0  0  0  0  0  0
   11.3406    6.4797   -2.1781 H   0  0  0  0  0  0  0  0  0  0  0  0
    7.1970    7.7622    0.1347 H   0  0  0  0  0  0  0  0  0  0  0  0
    8.0176    5.0790    1.2153 H   0  0  0  0  0  0  0  0  0  0  0  0
    4.7021    7.3925    2.5703 H   0  0  0  0  0  0  0  0  0  0  0  0
    4.9506    7.3413    0.8037 H   0  0  0  0  0  0  0  0  0  0  0  0
    5.3937    5.2860   -0.4446 H   0  0  0  0  0  0  0  0  0  0  0  0
    6.9449    4.8039   -1.1722 H   0  0  0  0  0  0  0  0  0  0  0  0
    4.5060    4.2382    1.7032 H   0  0  0  0  0  0  0  0  0  0  0  0
    4.5518    2.4820    1.9683 H   0  0  0  0  0  0  0  0  0  0  0  0
  1  2  1  0
  2  3  2  0
  2  4  1  0
  4  5  1  0
  5  6  1  0
  6  7  1  0
  7  8  1  0
  8  9  1  0
  9 10  2  0
 10 11  1  0
 11 12  2  0
 12 13  1  0
 13 14  2  0
 13 15  1  0
 15 16  1  0
 16 17  1  0
 17 18  1  0
 18 19  1  0
 19 20  1  0
 20 21  2  0
 20 22  1  0
 22 23  1  0
 22 24  1  0
 24 25  1  0
 25 26  2  0
 25 27  1  0
 27 28  1  0
 27 29  1  0
 29 30  1  0
 30 31  2  0
 30 32  1  0
 32 33  1  0
 32 34  1  0
 34 35  1  0
 35 36  2  0
 35 37  1  0
 37 38  1  0
 37 39  1  0
 39 40  1  0
 40 41  2  0
 40 42  1  0
 42 43  1  0
 42 44  1  0
 44 45  1  0
 45 46  2  0
 45 47  1  0
 47 48  1  0
 47 49  1  0
 49 50  1  0
 50 51  2  0
 50 52  1  0
 52 53  1  0
 52 54  1  0
 54 55  1  0
 55 56  2  0
 55 57  1  0
 57 58  1  0
 57 59  1  0
 59 60  1  0
 60 61  2  0
 60 62  1  0
 62 63  1  0
 62 64  1  0
 64 65  1  0
 65 66  2  0
 65 67  1  0
 67 68  1  0
 67 69  1  0
 69 70  1  0
 70 71  2  0
 18 72  1  0
 72 73  2  0
 72 74  1  0
 74 75  1  0
 75 76  1  0
 75 77  1  0
 77 78  2  0
 77 79  1  0
 79 80  1  0
 80 81  1  0
 80 82  1  0
 82 83  2  0
 82 84  1  0
 84 85  1  0
 85 86  1  0
 85 87  1  0
 87 88  2  0
 87 89  1  0
 89 90  1  0
 90 91  1  0
 90 92  1  0
 92 93  2  0
 92 94  1  0
 94 95  1  0
 95 96  1  0
 95 97  1  0
 97 98  2  0
 97 99  1  0
 99100  1  0
100101  1  0
100102  1  0
102103  2  0
102104  1  0
104105  1  0
105106  1  0
105107  1  0
107108  2  0
107109  1  0
109110  1  0
110111  1  0
111112  1  0
111113  2  0
110114  1  0
114115  1  0
115116  1  0
 70  5  1  0
 14  9  1  0
116 11  1  0
  1117  1  0
  1118  1  0
  1119  1  0
  4120  1  0
  5121  1  6
  6122  1  0
  6123  1  0
  8124  1  0
  8125  1  0
 10126  1  0
 12127  1  0
 14128  1  0
 15129  1  0
 15130  1  0
 17131  1  0
 17132  1  0
 18133  1  6
 19134  1  0
 22135  1  1
 23136  1  0
 23137  1  0
 23138  1  0
 24139  1  0
 27140  1  1
 28141  1  0
 28142  1  0
 28143  1  0
 29144  1  0
 32145  1  6
 33146  1  0
 33147  1  0
 33148  1  0
 34149  1  0
 37150  1  1
 38151  1  0
 38152  1  0
 38153  1  0
 39154  1  0
 42155  1  6
 43156  1  0
 43157  1  0
 43158  1  0
 44159  1  0
 47160  1  6
 48161  1  0
 48162  1  0
 48163  1  0
 49164  1  0
 52165  1  1
 53166  1  0
 53167  1  0
 53168  1  0
 54169  1  0
 57170  1  6
 58171  1  0
 58172  1  0
 58173  1  0
 59174  1  0
 62175  1  6
 63176  1  0
 63177  1  0
 63178  1  0
 64179  1  0
 67180  1  1
 68181  1  0
 68182  1  0
 68183  1  0
 69184  1  0
 74185  1  0
 75186  1  6
 76187  1  0
 76188  1  0
 76189  1  0
 79190  1  0
 80191  1  1
 81192  1  0
 81193  1  0
 81194  1  0
 84195  1  0
 85196  1  1
 86197  1  0
 86198  1  0
 86199  1  0
 89200  1  0
 90201  1  6
 91202  1  0
 91203  1  0
 91204  1  0
 94205  1  0
 95206  1  6
 96207  1  0
 96208  1  0
 96209  1  0
 99210  1  0
100211  1  6
101212  1  0
101213  1  0
101214  1  0
104215  1  0
105216  1  1
106217  1  0
106218  1  0
106219  1  0
109220  1  0
110221  1  1
112222  1  0
112223  1  0
114224  1  0
114225  1  0
116226  1  0
116227  1  0
M  END
