
     RDKit          3D

257259  0  0  0  0  0  0  0  0999 V2000
   -1.1002   -8.6619    1.2376 C   0  0  0  0  0  0  0  0  0  0  0  0
   -2.2596   -7.9812    0.5782 C   0  0  0  0  0  0  0  0  0  0  0  0
   -2.1537   -7.6371   -0.6311 O   0  0  0  0  0  0  0  0  0  0  0  0
   -3.4570   -7.7161    1.3211 N   0  0  0  0  0  0  0  0  0  0  0  0
   -4.4625   -6.6818    0.9974 C   0  0  1  0  0  0  0  0  0  0  0  0
   -3.8199   -5.3088    0.6862 C   0  0  0  0  0  0  0  0  0  0  0  0
   -3.3595   -4.4108    2.2194 S   0  0  0  0  0  0  0  0  0  0  0  0
   -1.6008   -4.9197    2.2994 C   0  0  0  0  0  0  0  0  0  0  0  0
   -0.7595   -4.0773    1.3830 C   0  0  0  0  0  0  0  0  0  0  0  0
   -0.1469   -4.6284    0.2413 C   0  0  0  0  0  0  0  0  0  0  0  0
    0.6636   -3.8315   -0.5891 C   0  0  0  0  0  0  0  0  0  0  0  0
    0.8749   -2.4823   -0.2572 C   0  0  0  0  0  0  0  0  0  0  0  0
    0.2910   -1.9286    0.8940 C   0  0  0  0  0  0  0  0  0  0  0  0
   -0.5365   -2.7240    1.7003 C   0  0  0  0  0  0  0  0  0  0  0  0
    0.5392   -0.4947    1.2536 C   0  0  0  0  0  0  0  0  0  0  0  0
   -0.7286    0.5683    0.4897 S   0  0  0  0  0  0  0  0  0  0  0  0
    0.0003    2.1221    1.1234 C   0  0  0  0  0  0  0  0  0  0  0  0
   -0.9982    3.2931    1.0061 C   0  0  2  0  0  0  0  0  0  0  0  0
   -1.0828    3.7764   -0.3780 N   0  0  0  0  0  0  0  0  0  0  0  0
   -2.2549    4.3774   -0.9689 C   0  0  0  0  0  0  0  0  0  0  0  0
   -2.1066    5.0472   -2.0222 O   0  0  0  0  0  0  0  0  0  0  0  0
   -3.6610    4.1840   -0.4130 C   0  0  1  0  0  0  0  0  0  0  0  0
   -3.9071    4.8659    0.9448 C   0  0  0  0  0  0  0  0  0  0  0  0
   -4.6927    4.5432   -1.4061 N   0  0  0  0  0  0  0  0  0  0  0  0
   -5.0652    5.8559   -1.8947 C   0  0  0  0  0  0  0  0  0  0  0  0
   -5.9671    5.9249   -2.7758 O   0  0  0  0  0  0  0  0  0  0  0  0
   -4.4278    7.1508   -1.4344 C   0  0  1  0  0  0  0  0  0  0  0  0
   -3.6687    7.8075   -2.5938 C   0  0  0  0  0  0  0  0  0  0  0  0
   -5.4633    8.0747   -0.9464 N   0  0  0  0  0  0  0  0  0  0  0  0
   -6.3460    7.7627    0.1305 C   0  0  0  0  0  0  0  0  0  0  0  0
   -5.8731    7.4971    1.2710 O   0  0  0  0  0  0  0  0  0  0  0  0
   -7.8490    7.7391   -0.0670 C   0  0  1  0  0  0  0  0  0  0  0  0
   -8.2700    8.5027   -1.3248 C   0  0  0  0  0  0  0  0  0  0  0  0
   -8.3172    6.3493   -0.1357 N   0  0  0  0  0  0  0  0  0  0  0  0
   -9.4910    5.9159    0.5640 C   0  0  0  0  0  0  0  0  0  0  0  0
   -9.3817    5.0169    1.4439 O   0  0  0  0  0  0  0  0  0  0  0  0
  -10.8384    6.5342    0.2632 C   0  0  1  0  0  0  0  0  0  0  0  0
  -11.2896    6.3002   -1.1882 C   0  0  0  0  0  0  0  0  0  0  0  0
  -11.8730    6.1180    1.2246 N   0  0  0  0  0  0  0  0  0  0  0  0
  -12.4911    4.8234    1.3617 C   0  0  0  0  0  0  0  0  0  0  0  0
  -13.4989    4.7202    2.1212 O   0  0  0  0  0  0  0  0  0  0  0  0
  -11.9938    3.5666    0.6733 C   0  0  1  0  0  0  0  0  0  0  0  0
  -11.6599    2.5071    1.7300 C   0  0  0  0  0  0  0  0  0  0  0  0
  -13.0241    3.0981   -0.2658 N   0  0  0  0  0  0  0  0  0  0  0  0
  -13.1915    1.7208   -0.6262 C   0  0  0  0  0  0  0  0  0  0  0  0
  -12.2544    1.1298   -1.2277 O   0  0  0  0  0  0  0  0  0  0  0  0
  -14.4264    0.9546   -0.2231 C   0  0  1  0  0  0  0  0  0  0  0  0
  -15.5652    1.8959    0.1897 C   0  0  0  0  0  0  0  0  0  0  0  0
  -14.8729    0.1123   -1.3357 N   0  0  0  0  0  0  0  0  0  0  0  0
  -14.8901   -1.3278   -1.3198 C   0  0  0  0  0  0  0  0  0  0  0  0
  -14.7498   -1.9268   -2.4225 O   0  0  0  0  0  0  0  0  0  0  0  0
  -15.0690   -2.1484   -0.0539 C   0  0  1  0  0  0  0  0  0  0  0  0
  -16.2472   -1.6488    0.8061 C   0  0  0  0  0  0  0  0  0  0  0  0
  -15.3248   -3.5546   -0.4051 N   0  0  0  0  0  0  0  0  0  0  0  0
  -14.4995   -4.6758   -0.0384 C   0  0  0  0  0  0  0  0  0  0  0  0
  -15.0446   -5.8131    0.0398 O   0  0  0  0  0  0  0  0  0  0  0  0
  -13.0015   -4.5779    0.1355 C   0  0  1  0  0  0  0  0  0  0  0  0
  -12.5471   -5.3106    1.4081 C   0  0  0  0  0  0  0  0  0  0  0  0
  -12.3430   -5.0849   -1.0724 N   0  0  0  0  0  0  0  0  0  0  0  0
  -11.5904   -6.3042   -1.1326 C   0  0  0  0  0  0  0  0  0  0  0  0
  -12.2069   -7.4040   -1.2331 O   0  0  0  0  0  0  0  0  0  0  0  0
  -10.0895   -6.2668   -1.2725 C   0  0  1  0  0  0  0  0  0  0  0  0
   -9.7074   -6.2602   -2.7543 C   0  0  0  0  0  0  0  0  0  0  0  0
   -9.5447   -5.0750   -0.6120 N   0  0  0  0  0  0  0  0  0  0  0  0
   -8.1731   -4.9574   -0.2104 C   0  0  0  0  0  0  0  0  0  0  0  0
   -7.5195   -3.9525   -0.5989 O   0  0  0  0  0  0  0  0  0  0  0  0
   -7.4933   -5.9407    0.7126 C   0  0  1  0  0  0  0  0  0  0  0  0
   -8.4334   -6.5668    1.7463 C   0  0  0  0  0  0  0  0  0  0  0  0
   -6.7992   -6.9838   -0.0582 N   0  0  0  0  0  0  0  0  0  0  0  0
   -5.3648   -7.1254   -0.1311 C   0  0  0  0  0  0  0  0  0  0  0  0
   -4.8608   -7.6435   -1.1646 O   0  0  0  0  0  0  0  0  0  0  0  0
   -0.6572    4.4381    1.9289 C   0  0  0  0  0  0  0  0  0  0  0  0
   -1.2975    4.5505    3.0107 O   0  0  0  0  0  0  0  0  0  0  0  0
    0.3394    5.4261    1.6194 N   0  0  0  0  0  0  0  0  0  0  0  0
    1.7131    5.0863    1.2316 C   0  0  2  0  0  0  0  0  0  0  0  0
    2.4486    4.4841    2.4391 C   0  0  0  0  0  0  0  0  0  0  0  0
    2.4343    6.3058    0.6963 C   0  0  0  0  0  0  0  0  0  0  0  0
    1.8503    7.0629   -0.1276 O   0  0  0  0  0  0  0  0  0  0  0  0
    3.7972    6.5713    1.0487 N   0  0  0  0  0  0  0  0  0  0  0  0
    4.9343    6.2252    0.1820 C   0  0  2  0  0  0  0  0  0  0  0  0
    4.6745    4.9420   -0.6237 C   0  0  0  0  0  0  0  0  0  0  0  0
    6.1769    6.0460    1.0303 C   0  0  0  0  0  0  0  0  0  0  0  0
    6.0522    5.5942    2.2047 O   0  0  0  0  0  0  0  0  0  0  0  0
    7.5046    6.3436    0.5533 N   0  0  0  0  0  0  0  0  0  0  0  0
    7.8867    6.5276   -0.8508 C   0  0  2  0  0  0  0  0  0  0  0  0
    8.6652    5.3051   -1.3442 C   0  0  0  0  0  0  0  0  0  0  0  0
    8.6519    7.8208   -0.9978 C   0  0  0  0  0  0  0  0  0  0  0  0
    8.0227    8.9111   -0.9358 O   0  0  0  0  0  0  0  0  0  0  0  0
   10.0608    7.8497   -1.2792 N   0  0  0  0  0  0  0  0  0  0  0  0
   11.0679    7.4287   -0.3047 C   0  0  2  0  0  0  0  0  0  0  0  0
   11.7892    8.6672    0.2509 C   0  0  0  0  0  0  0  0  0  0  0  0
   12.0667    6.5104   -0.9824 C   0  0  0  0  0  0  0  0  0  0  0  0
   12.6353    6.9168   -2.0320 O   0  0  0  0  0  0  0  0  0  0  0  0
   12.3777    5.1846   -0.5042 N   0  0  0  0  0  0  0  0  0  0  0  0
   12.1567    4.6885    0.8637 C   0  0  2  0  0  0  0  0  0  0  0  0
   13.2491    5.2301    1.7940 C   0  0  0  0  0  0  0  0  0  0  0  0
   12.1521    3.1802    0.9184 C   0  0  0  0  0  0  0  0  0  0  0  0
   11.9966    2.5946    2.0248 O   0  0  0  0  0  0  0  0  0  0  0  0
   12.3794    2.3958   -0.2569 N   0  0  0  0  0  0  0  0  0  0  0  0
   13.5001    1.4478   -0.3405 C   0  0  2  0  0  0  0  0  0  0  0  0
   14.8139    2.1813   -0.0283 C   0  0  0  0  0  0  0  0  0  0  0  0
   13.5981    0.8584   -1.7316 C   0  0  0  0  0  0  0  0  0  0  0  0
   13.3801    1.6114   -2.7220 O   0  0  0  0  0  0  0  0  0  0  0  0
   13.9865   -0.5049   -1.9915 N   0  0  0  0  0  0  0  0  0  0  0  0
   14.2650   -1.5613   -0.9934 C   0  0  2  0  0  0  0  0  0  0  0  0
   15.5090   -1.2258   -0.1511 C   0  0  0  0  0  0  0  0  0  0  0  0
   14.5191   -2.8982   -1.6703 C   0  0  0  0  0  0  0  0  0  0  0  0
   14.9171   -2.9363   -2.8689 O   0  0  0  0  0  0  0  0  0  0  0  0
   14.4662   -4.1267   -0.9389 N   0  0  0  0  0  0  0  0  0  0  0  0
   13.3779   -4.4777   -0.0143 C   0  0  2  0  0  0  0  0  0  0  0  0
   13.7712   -4.1276    1.4195 C   0  0  0  0  0  0  0  0  0  0  0  0
   13.0779   -5.9532   -0.1263 C   0  0  0  0  0  0  0  0  0  0  0  0
   14.0094   -6.7931    0.0088 O   0  0  0  0  0  0  0  0  0  0  0  0
   11.7547   -6.4201   -0.4006 N   0  0  0  0  0  0  0  0  0  0  0  0
   10.6430   -6.1283    0.5136 C   0  0  2  0  0  0  0  0  0  0  0  0
   10.7010   -7.0667    1.7217 C   0  0  0  0  0  0  0  0  0  0  0  0
    9.3192   -6.2531   -0.2003 C   0  0  0  0  0  0  0  0  0  0  0  0
    8.5724   -5.2390   -0.2830 O   0  0  0  0  0  0  0  0  0  0  0  0
    8.9019   -7.5032   -0.7742 N   0  0  0  0  0  0  0  0  0  0  0  0
    7.4907   -7.8237   -1.0189 C   0  0  2  0  0  0  0  0  0  0  0  0
    7.3478   -9.2680   -1.5265 C   0  0  0  0  0  0  0  0  0  0  0  0
    6.8922   -6.8799   -2.0327 C   0  0  0  0  0  0  0  0  0  0  0  0
    7.5397   -6.6519   -3.0924 O   0  0  0  0  0  0  0  0  0  0  0  0
    5.5871   -6.2858   -1.8822 N   0  0  0  0  0  0  0  0  0  0  0  0
    4.7884   -6.3067   -0.6427 C   0  0  1  0  0  0  0  0  0  0  0  0
    5.3883   -5.3681    0.3775 C   0  0  0  0  0  0  0  0  0  0  0  0
    5.8179   -5.8511    1.6570 N   0  0  0  0  0  0  0  0  0  0  0  0
    5.4959   -4.1433    0.1191 O   0  0  0  0  0  0  0  0  0  0  0  0
    3.3051   -5.9595   -0.9177 C   0  0  0  0  0  0  0  0  0  0  0  0
    3.0872   -4.3477   -1.7747 S   0  0  0  0  0  0  0  0  0  0  0  0
    1.2611   -4.3988   -1.8486 C   0  0  0  0  0  0  0  0  0  0  0  0
   -0.8465   -9.5850    0.6703 H   0  0  0  0  0  0  0  0  0  0  0  0
   -1.3579   -8.9524    2.2832 H   0  0  0  0  0  0  0  0  0  0  0  0
   -0.2149   -7.9901    1.2570 H   0  0  0  0  0  0  0  0  0  0  0  0
   -3.5634   -8.1714    2.2546 H   0  0  0  0  0  0  0  0  0  0  0  0
   -5.0927   -6.5664    1.9047 H   0  0  0  0  0  0  0  0  0  0  0  0
   -2.9732   -5.3862   -0.0118 H   0  0  0  0  0  0  0  0  0  0  0  0
   -4.5723   -4.6719    0.1771 H   0  0  0  0  0  0  0  0  0  0  0  0
   -1.2411   -4.7712    3.3407 H   0  0  0  0  0  0  0  0  0  0  0  0
   -1.4981   -5.9969    2.0830 H   0  0  0  0  0  0  0  0  0  0  0  0
   -0.3133   -5.6763   -0.0100 H   0  0  0  0  0  0  0  0  0  0  0  0
    1.4924   -1.8633   -0.9040 H   0  0  0  0  0  0  0  0  0  0  0  0
   -0.9864   -2.3028    2.5917 H   0  0  0  0  0  0  0  0  0  0  0  0
    1.5482   -0.1847    0.9069 H   0  0  0  0  0  0  0  0  0  0  0  0
    0.5092   -0.3849    2.3559 H   0  0  0  0  0  0  0  0  0  0  0  0
    0.2616    1.9768    2.1935 H   0  0  0  0  0  0  0  0  0  0  0  0
    0.9265    2.3183    0.5454 H   0  0  0  0  0  0  0  0  0  0  0  0
   -1.9731    2.8722    1.3088 H   0  0  0  0  0  0  0  0  0  0  0  0
   -0.1869    3.9141   -0.8999 H   0  0  0  0  0  0  0  0  0  0  0  0
   -3.7689    3.0938   -0.2378 H   0  0  0  0  0  0  0  0  0  0  0  0
   -3.7394    4.1539    1.7826 H   0  0  0  0  0  0  0  0  0  0  0  0
   -3.2339    5.7347    1.1075 H   0  0  0  0  0  0  0  0  0  0  0  0
   -4.9616    5.1888    1.0233 H   0  0  0  0  0  0  0  0  0  0  0  0
   -5.2694    3.7534   -1.7666 H   0  0  0  0  0  0  0  0  0  0  0  0
   -3.6980    6.9812   -0.6210 H   0  0  0  0  0  0  0  0  0  0  0  0
   -4.3701    8.1487   -3.3865 H   0  0  0  0  0  0  0  0  0  0  0  0
   -3.1076    8.6933   -2.2187 H   0  0  0  0  0  0  0  0  0  0  0  0
   -2.9415    7.1088   -3.0463 H   0  0  0  0  0  0  0  0  0  0  0  0
   -5.4220    9.0860   -1.2262 H   0  0  0  0  0  0  0  0  0  0  0  0
   -8.3096    8.2436    0.8123 H   0  0  0  0  0  0  0  0  0  0  0  0
   -7.9449    7.9544   -2.2372 H   0  0  0  0  0  0  0  0  0  0  0  0
   -7.8252    9.5215   -1.3213 H   0  0  0  0  0  0  0  0  0  0  0  0
   -9.3692    8.6246   -1.3545 H   0  0  0  0  0  0  0  0  0  0  0  0
   -7.6470    5.6064   -0.4419 H   0  0  0  0  0  0  0  0  0  0  0  0
  -10.7115    7.6346    0.3788 H   0  0  0  0  0  0  0  0  0  0  0  0
  -11.3705    5.2300   -1.4432 H   0  0  0  0  0  0  0  0  0  0  0  0
  -12.2826    6.7723   -1.3507 H   0  0  0  0  0  0  0  0  0  0  0  0
  -10.5661    6.7543   -1.8966 H   0  0  0  0  0  0  0  0  0  0  0  0
  -12.3068    6.8901    1.7911 H   0  0  0  0  0  0  0  0  0  0  0  0
  -11.0658    3.7521    0.1010 H   0  0  0  0  0  0  0  0  0  0  0  0
  -12.5877    2.1488    2.2256 H   0  0  0  0  0  0  0  0  0  0  0  0
  -10.9825    2.9321    2.5018 H   0  0  0  0  0  0  0  0  0  0  0  0
  -11.1405    1.6476    1.2654 H   0  0  0  0  0  0  0  0  0  0  0  0
  -13.5181    3.8131   -0.8546 H   0  0  0  0  0  0  0  0  0  0  0  0
  -14.1379    0.3365    0.6513 H   0  0  0  0  0  0  0  0  0  0  0  0
  -15.2660    2.4995    1.0765 H   0  0  0  0  0  0  0  0  0  0  0  0
  -16.4745    1.3242    0.4497 H   0  0  0  0  0  0  0  0  0  0  0  0
  -15.8245    2.5858   -0.6453 H   0  0  0  0  0  0  0  0  0  0  0  0
  -15.0933    0.5846   -2.2416 H   0  0  0  0  0  0  0  0  0  0  0  0
  -14.1533   -2.0509    0.5626 H   0  0  0  0  0  0  0  0  0  0  0  0
  -16.5544   -2.4363    1.5263 H   0  0  0  0  0  0  0  0  0  0  0  0
  -15.9526   -0.7711    1.4147 H   0  0  0  0  0  0  0  0  0  0  0  0
  -17.1203   -1.3821    0.1735 H   0  0  0  0  0  0  0  0  0  0  0  0
  -16.2433   -3.7709   -0.8549 H   0  0  0  0  0  0  0  0  0  0  0  0
  -12.6765   -3.5244    0.2555 H   0  0  0  0  0  0  0  0  0  0  0  0
  -13.0522   -4.8761    2.3000 H   0  0  0  0  0  0  0  0  0  0  0  0
  -11.4505   -5.1972    1.5373 H   0  0  0  0  0  0  0  0  0  0  0  0
  -12.7895   -6.3949    1.3538 H   0  0  0  0  0  0  0  0  0  0  0  0
  -12.3911   -4.5017   -1.9390 H   0  0  0  0  0  0  0  0  0  0  0  0
   -9.6812   -7.1877   -0.8148 H   0  0  0  0  0  0  0  0  0  0  0  0
  -10.1615   -7.1337   -3.2766 H   0  0  0  0  0  0  0  0  0  0  0  0
  -10.0624   -5.3258   -3.2468 H   0  0  0  0  0  0  0  0  0  0  0  0
   -8.6043   -6.3269   -2.8677 H   0  0  0  0  0  0  0  0  0  0  0  0
  -10.0205   -4.1631   -0.8204 H   0  0  0  0  0  0  0  0  0  0  0  0
   -6.7639   -5.3371    1.2923 H   0  0  0  0  0  0  0  0  0  0  0  0
   -7.8311   -7.0248    2.5675 H   0  0  0  0  0  0  0  0  0  0  0  0
   -9.0594   -7.3773    1.3056 H   0  0  0  0  0  0  0  0  0  0  0  0
   -9.0933   -5.7922    2.1930 H   0  0  0  0  0  0  0  0  0  0  0  0
   -7.3711   -7.5599   -0.7158 H   0  0  0  0  0  0  0  0  0  0  0  0
    0.1933    6.3804    2.0289 H   0  0  0  0  0  0  0  0  0  0  0  0
    1.7013    4.3478    0.4085 H   0  0  0  0  0  0  0  0  0  0  0  0
    1.8815    3.6267    2.8546 H   0  0  0  0  0  0  0  0  0  0  0  0
    3.4544    4.1203    2.1465 H   0  0  0  0  0  0  0  0  0  0  0  0
    2.5669    5.2473    3.2362 H   0  0  0  0  0  0  0  0  0  0  0  0
    3.9524    7.3260    1.7536 H   0  0  0  0  0  0  0  0  0  0  0  0
    5.0851    7.0742   -0.5211 H   0  0  0  0  0  0  0  0  0  0  0  0
    5.5432    4.7189   -1.2803 H   0  0  0  0  0  0  0  0  0  0  0  0
    3.7846    5.0617   -1.2813 H   0  0  0  0  0  0  0  0  0  0  0  0
    4.5159    4.0733    0.0510 H   0  0  0  0  0  0  0  0  0  0  0  0
    8.2820    6.2533    1.2439 H   0  0  0  0  0  0  0  0  0  0  0  0
    6.9941    6.6121   -1.4993 H   0  0  0  0  0  0  0  0  0  0  0  0
    7.9880    4.4224   -1.3878 H   0  0  0  0  0  0  0  0  0  0  0  0
    9.4975    5.0642   -0.6503 H   0  0  0  0  0  0  0  0  0  0  0  0
    9.0700    5.4836   -2.3622 H   0  0  0  0  0  0  0  0  0  0  0  0
   10.3674    8.4799   -2.0535 H   0  0  0  0  0  0  0  0  0  0  0  0
   10.5666    6.9319    0.5442 H   0  0  0  0  0  0  0  0  0  0  0  0
   12.5567    8.3716    0.9938 H   0  0  0  0  0  0  0  0  0  0  0  0
   11.0544    9.3328    0.7502 H   0  0  0  0  0  0  0  0  0  0  0  0
   12.2844    9.2316   -0.5662 H   0  0  0  0  0  0  0  0  0  0  0  0
   13.0382    4.6478   -1.1078 H   0  0  0  0  0  0  0  0  0  0  0  0
   11.1674    5.0140    1.2363 H   0  0  0  0  0  0  0  0  0  0  0  0
   14.2351    4.7968    1.5213 H   0  0  0  0  0  0  0  0  0  0  0  0
   13.0172    4.9753    2.8462 H   0  0  0  0  0  0  0  0  0  0  0  0
   13.3131    6.3345    1.7164 H   0  0  0  0  0  0  0  0  0  0  0  0
   11.6920    2.4829   -1.0461 H   0  0  0  0  0  0  0  0  0  0  0  0
   13.3321    0.6425    0.4057 H   0  0  0  0  0  0  0  0  0  0  0  0
   14.8663    3.1368   -0.5893 H   0  0  0  0  0  0  0  0  0  0  0  0
   14.8778    2.3913    1.0590 H   0  0  0  0  0  0  0  0  0  0  0  0
   15.7037    1.5780   -0.3154 H   0  0  0  0  0  0  0  0  0  0  0  0
   14.0224   -0.7527   -3.0082 H   0  0  0  0  0  0  0  0  0  0  0  0
   13.3821   -1.6605   -0.3288 H   0  0  0  0  0  0  0  0  0  0  0  0
   16.3206   -0.8390   -0.8028 H   0  0  0  0  0  0  0  0  0  0  0  0
   15.2680   -0.4919    0.6421 H   0  0  0  0  0  0  0  0  0  0  0  0
   15.8881   -2.1277    0.3746 H   0  0  0  0  0  0  0  0  0  0  0  0
   15.1132   -4.8840   -1.2667 H   0  0  0  0  0  0  0  0  0  0  0  0
   12.4615   -3.9036   -0.2898 H   0  0  0  0  0  0  0  0  0  0  0  0
   14.7622   -4.5620    1.6698 H   0  0  0  0  0  0  0  0  0  0  0  0
   13.0141   -4.5248    2.1333 H   0  0  0  0  0  0  0  0  0  0  0  0
   13.8167   -3.0293    1.5525 H   0  0  0  0  0  0  0  0  0  0  0  0
   11.6815   -7.2828   -0.9902 H   0  0  0  0  0  0  0  0  0  0  0  0
   10.7420   -5.0877    0.8916 H   0  0  0  0  0  0  0  0  0  0  0  0
   10.6881   -8.1302    1.3999 H   0  0  0  0  0  0  0  0  0  0  0  0
    9.8369   -6.8839    2.3932 H   0  0  0  0  0  0  0  0  0  0  0  0
   11.6338   -6.8871    2.2984 H   0  0  0  0  0  0  0  0  0  0  0  0
    9.6030   -8.2762   -0.8257 H   0  0  0  0  0  0  0  0  0  0  0  0
    6.9581   -7.7669   -0.0516 H   0  0  0  0  0  0  0  0  0  0  0  0
    6.2746   -9.5778   -1.5279 H   0  0  0  0  0  0  0  0  0  0  0  0
    7.7534   -9.3622   -2.5624 H   0  0  0  0  0  0  0  0  0  0  0  0
    7.9106   -9.9658   -0.8645 H   0  0  0  0  0  0  0  0  0  0  0  0
    5.1985   -5.8040   -2.7232 H   0  0  0  0  0  0  0  0  0  0  0  0
    4.7796   -7.3454   -0.2386 H   0  0  0  0  0  0  0  0  0  0  0  0
    6.2458   -5.1920    2.3418 H   0  0  0  0  0  0  0  0  0  0  0  0
    5.7697   -6.8660    1.8927 H   0  0  0  0  0  0  0  0  0  0  0  0
    2.8654   -6.7627   -1.5517 H   0  0  0  0  0  0  0  0  0  0  0  0
    2.7463   -5.9429    0.0504 H   0  0  0  0  0  0  0  0  0  0  0  0
    0.9383   -3.7726   -2.7050 H   0  0  0  0  0  0  0  0  0  0  0  0
    0.8983   -5.4308   -2.0542 H   0  0  0  0  0  0  0  0  0  0  0  0
  1  2  1  0
  2  3  2  0
  2  4  1  0
  4  5  1  0
  5  6  1  0
  6  7  1  0
  7  8  1  0
  8  9  1  0
  9 10  2  0
 10 11  1  0
 11 12  2  0
 12 13  1  0
 13 14  2  0
 13 15  1  0
 15 16  1  0
 16 17  1  0
 17 18  1  0
 18 19  1  0
 19 20  1  0
 20 21  2  0
 20 22  1  0
 22 23  1  0
 22 24  1  0
 24 25  1  0
 25 26  2  0
 25 27  1  0
 27 28  1  0
 27 29  1  0
 29 30  1  0
 30 31  2  0
 30 32  1  0
 32 33  1  0
 32 34  1  0
 34 35  1  0
 35 36  2  0
 35 37  1  0
 37 38  1  0
 37 39  1  0
 39 40  1  0
 40 41  2  0
 40 42  1  0
 42 43  1  0
 42 44  1  0
 44 45  1  0
 45 46  2  0
 45 47  1  0
 47 48  1  0
 47 49  1  0
 49 50  1  0
 50 51  2  0
 50 52  1  0
 52 53  1  0
 52 54  1  0
 54 55  1  0
 55 56  2  0
 55 57  1  0
 57 58  1  0
 57 59  1  0
 59 60  1  0
 60 61  2  0
 60 62  1  0
 62 63  1  0
 62 64  1  0
 64 65  1  0
 65 66  2  0
 65 67  1  0
 67 68  1  0
 67 69  1  0
 69 70  1  0
 70 71  2  0
 18 72  1  0
 72 73  2  0
 72 74  1  0
 74 75  1  0
 75 76  1  0
 75 77  1  0
 77 78  2  0
 77 79  1  0
 79 80  1  0
 80 81  1  0
 80 82  1  0
 82 83  2  0
 82 84  1  0
 84 85  1  0
 85 86  1  0
 85 87  1  0
 87 88  2  0
 87 89  1  0
 89 90  1  0
 90 91  1  0
 90 92  1  0
 92 93  2  0
 92 94  1  0
 94 95  1  0
 95 96  1  0
 95 97  1  0
 97 98  2  0
 97 99  1  0
 99100  1  0
100101  1  0
100102  1  0
102103  2  0
102104  1  0
104105  1  0
105106  1  0
105107  1  0
107108  2  0
107109  1  0
109110  1  0
110111  1  0
110112  1  0
112113  2  0
112114  1  0
114115  1  0
115116  1  0
115117  1  0
117118  2  0
117119  1  0
119120  1  0
120121  1  0
120122  1  0
122123  2  0
122124  1  0
124125  1  0
125126  1  0
126127  1  0
126128  2  0
125129  1  0
129130  1  0
130131  1  0
 70  5  1  0
 14  9  1  0
131 11  1  0
  1132  1  0
  1133  1  0
  1134  1  0
  4135  1  0
  5136  1  1
  6137  1  0
  6138  1  0
  8139  1  0
  8140  1  0
 10141  1  0
 12142  1  0
 14143  1  0
 15144  1  0
 15145  1  0
 17146  1  0
 17147  1  0
 18148  1  1
 19149  1  0
 22150  1  1
 23151  1  0
 23152  1  0
 23153  1  0
 24154  1  0
 27155  1  1
 28156  1  0
 28157  1  0
 28158  1  0
 29159  1  0
 32160  1  1
 33161  1  0
 33162  1  0
 33163  1  0
 34164  1  0
 37165  1  6
 38166  1  0
 38167  1  0
 38168  1  0
 39169  1  0
 42170  1  6
 43171  1  0
 43172  1  0
 43173  1  0
 44174  1  0
 47175  1  1
 48176  1  0
 48177  1  0
 48178  1  0
 49179  1  0
 52180  1  1
 53181  1  0
 53182  1  0
 53183  1  0
 54184  1  0
 57185  1  1
 58186  1  0
 58187  1  0
 58188  1  0
 59189  1  0
 62190  1  1
 63191  1  0
 63192  1  0
 63193  1  0
 64194  1  0
 67195  1  1
 68196  1  0
 68197  1  0
 68198  1  0
 69199  1  0
 74200  1  0
 75201  1  6
 76202  1  0
 76203  1  0
 76204  1  0
 79205  1  0
 80206  1  6
 81207  1  0
 81208  1  0
 81209  1  0
 84210  1  0
 85211  1  6
 86212  1  0
 86213  1  0
 86214  1  0
 89215  1  0
 90216  1  1
 91217  1  0
 91218  1  0
 91219  1  0
 94220  1  0
 95221  1  1
 96222  1  0
 96223  1  0
 96224  1  0
 99225  1  0
100226  1  1
101227  1  0
101228  1  0
101229  1  0
104230  1  0
105231  1  1
106232  1  0
106233  1  0
106234  1  0
109235  1  0
110236  1  6
111237  1  0
111238  1  0
111239  1  0
114240  1  0
115241  1  1
116242  1  0
116243  1  0
116244  1  0
119245  1  0
120246  1  1
121247  1  0
121248  1  0
121249  1  0
124250  1  0
125251  1  1
127252  1  0
127253  1  0
129254  1  0
129255  1  0
131256  1  0
131257  1  0
M  END
