
     RDKit          3D

257259  0  0  0  0  0  0  0  0999 V2000
    2.9432   -9.9171   -0.1681 C   0  0  0  0  0  0  0  0  0  0  0  0
    2.8322   -8.5928    0.5267 C   0  0  0  0  0  0  0  0  0  0  0  0
    2.1751   -8.5118    1.5980 O   0  0  0  0  0  0  0  0  0  0  0  0
    3.4737   -7.4320   -0.0231 N   0  0  0  0  0  0  0  0  0  0  0  0
    3.8065   -6.2608    0.7964 C   0  0  2  0  0  0  0  0  0  0  0  0
    3.7211   -4.9902   -0.0782 C   0  0  0  0  0  0  0  0  0  0  0  0
    4.2025   -3.4277    0.7691 S   0  0  0  0  0  0  0  0  0  0  0  0
    2.8884   -3.3381    2.0374 C   0  0  0  0  0  0  0  0  0  0  0  0
    1.5456   -3.0678    1.4208 C   0  0  0  0  0  0  0  0  0  0  0  0
    0.4987   -3.9921    1.5579 C   0  0  0  0  0  0  0  0  0  0  0  0
   -0.7893   -3.6728    1.1081 C   0  0  0  0  0  0  0  0  0  0  0  0
   -1.0192   -2.4510    0.4586 C   0  0  0  0  0  0  0  0  0  0  0  0
    0.0195   -1.5265    0.3105 C   0  0  0  0  0  0  0  0  0  0  0  0
    1.2949   -1.8260    0.8122 C   0  0  0  0  0  0  0  0  0  0  0  0
   -0.2857   -0.1425   -0.1745 C   0  0  0  0  0  0  0  0  0  0  0  0
    0.7504    0.3011   -1.6100 S   0  0  0  0  0  0  0  0  0  0  0  0
    1.6184    1.7330   -0.8590 C   0  0  0  0  0  0  0  0  0  0  0  0
    0.6689    2.9241   -0.5643 C   0  0  2  0  0  0  0  0  0  0  0  0
    1.3012    4.1820   -0.9567 N   0  0  0  0  0  0  0  0  0  0  0  0
    1.0038    4.8096   -2.2114 C   0  0  0  0  0  0  0  0  0  0  0  0
    0.7313    4.0914   -3.2109 O   0  0  0  0  0  0  0  0  0  0  0  0
    1.0232    6.3151   -2.3603 C   0  0  1  0  0  0  0  0  0  0  0  0
   -0.2085    6.7929   -3.1392 C   0  0  0  0  0  0  0  0  0  0  0  0
    1.0386    6.9649   -1.0395 N   0  0  0  0  0  0  0  0  0  0  0  0
    2.2273    7.4044   -0.3606 C   0  0  0  0  0  0  0  0  0  0  0  0
    2.1044    8.1674    0.6335 O   0  0  0  0  0  0  0  0  0  0  0  0
    3.6126    7.0066   -0.8148 C   0  0  1  0  0  0  0  0  0  0  0  0
    4.2659    8.1763   -1.5641 C   0  0  0  0  0  0  0  0  0  0  0  0
    4.4318    6.6220    0.3334 N   0  0  0  0  0  0  0  0  0  0  0  0
    5.7476    6.0947    0.1538 C   0  0  0  0  0  0  0  0  0  0  0  0
    5.8932    4.9549   -0.3609 O   0  0  0  0  0  0  0  0  0  0  0  0
    6.9320    6.8952    0.6345 C   0  0  1  0  0  0  0  0  0  0  0  0
    7.2214    6.5748    2.1007 C   0  0  0  0  0  0  0  0  0  0  0  0
    8.1185    6.6388   -0.1876 N   0  0  0  0  0  0  0  0  0  0  0  0
    9.2236    7.5544   -0.2153 C   0  0  0  0  0  0  0  0  0  0  0  0
    9.0637    8.7400    0.1866 O   0  0  0  0  0  0  0  0  0  0  0  0
   10.5858    7.1560   -0.7407 C   0  0  1  0  0  0  0  0  0  0  0  0
   11.6895    7.4817    0.2762 C   0  0  0  0  0  0  0  0  0  0  0  0
   10.6548    5.7419   -1.1383 N   0  0  0  0  0  0  0  0  0  0  0  0
   10.7883    4.6690   -0.1979 C   0  0  0  0  0  0  0  0  0  0  0  0
   10.0115    4.6067    0.7956 O   0  0  0  0  0  0  0  0  0  0  0  0
   11.9085    3.6511   -0.2964 C   0  0  1  0  0  0  0  0  0  0  0  0
   12.6322    3.7080   -1.6458 C   0  0  0  0  0  0  0  0  0  0  0  0
   12.8648    3.8889    0.7922 N   0  0  0  0  0  0  0  0  0  0  0  0
   13.6517    2.8800    1.4388 C   0  0  0  0  0  0  0  0  0  0  0  0
   14.0931    3.1147    2.6011 O   0  0  0  0  0  0  0  0  0  0  0  0
   14.0332    1.5755    0.7641 C   0  0  1  0  0  0  0  0  0  0  0  0
   15.4078    1.7367    0.1104 C   0  0  0  0  0  0  0  0  0  0  0  0
   14.0804    0.4738    1.7384 N   0  0  0  0  0  0  0  0  0  0  0  0
   13.7329   -0.8939    1.4576 C   0  0  0  0  0  0  0  0  0  0  0  0
   13.4885   -1.6579    2.4350 O   0  0  0  0  0  0  0  0  0  0  0  0
   13.8027   -1.4887    0.0684 C   0  0  1  0  0  0  0  0  0  0  0  0
   15.1841   -2.1250   -0.1297 C   0  0  0  0  0  0  0  0  0  0  0  0
   12.7501   -2.4977   -0.1155 N   0  0  0  0  0  0  0  0  0  0  0  0
   12.6687   -3.2937   -1.3039 C   0  0  0  0  0  0  0  0  0  0  0  0
   12.7510   -2.7386   -2.4325 O   0  0  0  0  0  0  0  0  0  0  0  0
   12.4644   -4.7891   -1.2109 C   0  0  1  0  0  0  0  0  0  0  0  0
   13.3969   -5.5164   -2.1879 C   0  0  0  0  0  0  0  0  0  0  0  0
   12.7426   -5.2558    0.1572 N   0  0  0  0  0  0  0  0  0  0  0  0
   11.7755   -5.8354    1.0548 C   0  0  0  0  0  0  0  0  0  0  0  0
   11.9584   -5.6914    2.2950 O   0  0  0  0  0  0  0  0  0  0  0  0
   10.6408   -6.7157    0.5630 C   0  0  1  0  0  0  0  0  0  0  0  0
   11.1929   -8.0724    0.1241 C   0  0  0  0  0  0  0  0  0  0  0  0
    9.6330   -6.9116    1.6166 N   0  0  0  0  0  0  0  0  0  0  0  0
    8.2864   -7.3326    1.3403 C   0  0  0  0  0  0  0  0  0  0  0  0
    7.7999   -8.2756    2.0149 O   0  0  0  0  0  0  0  0  0  0  0  0
    7.4412   -6.6664    0.2798 C   0  0  1  0  0  0  0  0  0  0  0  0
    6.9084   -7.6864   -0.7330 C   0  0  0  0  0  0  0  0  0  0  0  0
    6.3551   -5.8989    0.8914 N   0  0  0  0  0  0  0  0  0  0  0  0
    5.1596   -6.4922    1.4308 C   0  0  0  0  0  0  0  0  0  0  0  0
    5.2457   -7.2805    2.4089 O   0  0  0  0  0  0  0  0  0  0  0  0
    0.2507    3.0142    0.8896 C   0  0  0  0  0  0  0  0  0  0  0  0
    1.0656    2.7297    1.8072 O   0  0  0  0  0  0  0  0  0  0  0  0
   -1.0718    3.4370    1.2348 N   0  0  0  0  0  0  0  0  0  0  0  0
   -1.6291    4.6849    0.7111 C   0  0  2  0  0  0  0  0  0  0  0  0
   -1.3359    5.8235    1.6929 C   0  0  0  0  0  0  0  0  0  0  0  0
   -3.0952    4.5213    0.4047 C   0  0  0  0  0  0  0  0  0  0  0  0
   -3.4427    3.7866   -0.5580 O   0  0  0  0  0  0  0  0  0  0  0  0
   -4.0927    5.2723    1.1082 N   0  0  0  0  0  0  0  0  0  0  0  0
   -5.1296    6.0564    0.4161 C   0  0  2  0  0  0  0  0  0  0  0  0
   -4.5321    6.8232   -0.7757 C   0  0  0  0  0  0  0  0  0  0  0  0
   -5.7487    7.0625    1.3688 C   0  0  0  0  0  0  0  0  0  0  0  0
   -5.0053    7.6351    2.2123 O   0  0  0  0  0  0  0  0  0  0  0  0
   -7.1320    7.4292    1.3175 N   0  0  0  0  0  0  0  0  0  0  0  0
   -8.0244    7.2219    0.1740 C   0  0  2  0  0  0  0  0  0  0  0  0
   -8.4405    8.5897   -0.3783 C   0  0  0  0  0  0  0  0  0  0  0  0
   -9.1751    6.3461    0.6280 C   0  0  0  0  0  0  0  0  0  0  0  0
   -8.8948    5.1922    1.0564 O   0  0  0  0  0  0  0  0  0  0  0  0
  -10.5364    6.7930    0.7068 N   0  0  0  0  0  0  0  0  0  0  0  0
  -11.3538    7.2175   -0.4388 C   0  0  2  0  0  0  0  0  0  0  0  0
  -12.8506    7.1681   -0.0944 C   0  0  0  0  0  0  0  0  0  0  0  0
  -11.0571    6.4249   -1.7027 C   0  0  0  0  0  0  0  0  0  0  0  0
  -10.6165    7.0530   -2.7020 O   0  0  0  0  0  0  0  0  0  0  0  0
  -11.3048    5.0102   -1.8462 N   0  0  0  0  0  0  0  0  0  0  0  0
  -11.5292    4.0611   -0.7501 C   0  0  2  0  0  0  0  0  0  0  0  0
  -10.5866    2.8624   -0.8964 C   0  0  0  0  0  0  0  0  0  0  0  0
  -12.9480    3.5812   -0.7371 C   0  0  0  0  0  0  0  0  0  0  0  0
  -13.6082    3.4968   -1.8118 O   0  0  0  0  0  0  0  0  0  0  0  0
  -13.5597    3.2250    0.5068 N   0  0  0  0  0  0  0  0  0  0  0  0
  -14.1262    1.8920    0.7119 C   0  0  2  0  0  0  0  0  0  0  0  0
  -15.5484    2.0138    1.2614 C   0  0  0  0  0  0  0  0  0  0  0  0
  -13.2503    1.1183    1.6644 C   0  0  0  0  0  0  0  0  0  0  0  0
  -12.8453    1.6778    2.7245 O   0  0  0  0  0  0  0  0  0  0  0  0
  -12.8640   -0.2371    1.4074 N   0  0  0  0  0  0  0  0  0  0  0  0
  -13.7713   -1.2328    0.8290 C   0  0  2  0  0  0  0  0  0  0  0  0
  -14.5402   -1.9450    1.9473 C   0  0  0  0  0  0  0  0  0  0  0  0
  -12.9958   -2.1803   -0.0465 C   0  0  0  0  0  0  0  0  0  0  0  0
  -12.6917   -1.8157   -1.2197 O   0  0  0  0  0  0  0  0  0  0  0  0
  -12.5653   -3.4597    0.4328 N   0  0  0  0  0  0  0  0  0  0  0  0
  -12.5722   -4.6376   -0.4373 C   0  0  2  0  0  0  0  0  0  0  0  0
  -14.0152   -5.0779   -0.7105 C   0  0  0  0  0  0  0  0  0  0  0  0
  -11.7868   -5.7757    0.1620 C   0  0  0  0  0  0  0  0  0  0  0  0
  -11.7765   -5.9619    1.4144 O   0  0  0  0  0  0  0  0  0  0  0  0
  -11.0866   -6.6737   -0.6897 N   0  0  0  0  0  0  0  0  0  0  0  0
   -9.6250   -6.6544   -0.7745 C   0  0  2  0  0  0  0  0  0  0  0  0
   -9.2045   -6.0181   -2.1034 C   0  0  0  0  0  0  0  0  0  0  0  0
   -9.0565   -8.0394   -0.6296 C   0  0  0  0  0  0  0  0  0  0  0  0
   -9.8066   -9.0222   -0.3677 O   0  0  0  0  0  0  0  0  0  0  0  0
   -7.6434   -8.2425   -0.7305 N   0  0  0  0  0  0  0  0  0  0  0  0
   -6.8654   -8.8117    0.3714 C   0  0  2  0  0  0  0  0  0  0  0  0
   -7.0027   -7.9736    1.6568 C   0  0  0  0  0  0  0  0  0  0  0  0
   -5.4139   -8.9915   -0.0178 C   0  0  0  0  0  0  0  0  0  0  0  0
   -4.9377  -10.1644    0.0126 O   0  0  0  0  0  0  0  0  0  0  0  0
   -4.5352   -7.9126   -0.3933 N   0  0  0  0  0  0  0  0  0  0  0  0
   -4.9257   -6.5271   -0.7066 C   0  0  2  0  0  0  0  0  0  0  0  0
   -4.7155   -6.2010   -2.1731 C   0  0  0  0  0  0  0  0  0  0  0  0
   -4.2661   -7.1812   -3.1159 N   0  0  0  0  0  0  0  0  0  0  0  0
   -4.9649   -5.0343   -2.5791 O   0  0  0  0  0  0  0  0  0  0  0  0
   -4.1642   -5.5627    0.2103 C   0  0  0  0  0  0  0  0  0  0  0  0
   -2.3677   -5.5157   -0.1493 S   0  0  0  0  0  0  0  0  0  0  0  0
   -1.9373   -4.6013    1.3712 C   0  0  0  0  0  0  0  0  0  0  0  0
    3.4685  -10.6361    0.4905 H   0  0  0  0  0  0  0  0  0  0  0  0
    1.9304  -10.3084   -0.4019 H   0  0  0  0  0  0  0  0  0  0  0  0
    3.4985   -9.8153   -1.1223 H   0  0  0  0  0  0  0  0  0  0  0  0
    3.9253   -7.5190   -0.9660 H   0  0  0  0  0  0  0  0  0  0  0  0
    3.0562   -6.1655    1.6078 H   0  0  0  0  0  0  0  0  0  0  0  0
    4.3992   -5.1152   -0.9494 H   0  0  0  0  0  0  0  0  0  0  0  0
    2.6914   -4.8873   -0.4788 H   0  0  0  0  0  0  0  0  0  0  0  0
    3.1361   -2.4975    2.7245 H   0  0  0  0  0  0  0  0  0  0  0  0
    2.8838   -4.2492    2.6688 H   0  0  0  0  0  0  0  0  0  0  0  0
    0.6761   -4.9383    2.0616 H   0  0  0  0  0  0  0  0  0  0  0  0
   -2.0241   -2.1856    0.1459 H   0  0  0  0  0  0  0  0  0  0  0  0
    2.0836   -1.0750    0.7704 H   0  0  0  0  0  0  0  0  0  0  0  0
   -1.3481   -0.0550   -0.5025 H   0  0  0  0  0  0  0  0  0  0  0  0
   -0.1423    0.5355    0.6863 H   0  0  0  0  0  0  0  0  0  0  0  0
    2.1855    1.4091    0.0390 H   0  0  0  0  0  0  0  0  0  0  0  0
    2.3760    2.0491   -1.6068 H   0  0  0  0  0  0  0  0  0  0  0  0
   -0.2552    2.7886   -1.1733 H   0  0  0  0  0  0  0  0  0  0  0  0
    1.9464    4.6517   -0.2827 H   0  0  0  0  0  0  0  0  0  0  0  0
    1.9150    6.6028   -2.9506 H   0  0  0  0  0  0  0  0  0  0  0  0
   -0.2186    6.3514   -4.1569 H   0  0  0  0  0  0  0  0  0  0  0  0
   -0.1879    7.8974   -3.2421 H   0  0  0  0  0  0  0  0  0  0  0  0
   -1.1410    6.4983   -2.6126 H   0  0  0  0  0  0  0  0  0  0  0  0
    0.1243    7.1660   -0.5786 H   0  0  0  0  0  0  0  0  0  0  0  0
    3.5572    6.1326   -1.4961 H   0  0  0  0  0  0  0  0  0  0  0  0
    3.6212    8.4867   -2.4119 H   0  0  0  0  0  0  0  0  0  0  0  0
    4.4221    9.0405   -0.8837 H   0  0  0  0  0  0  0  0  0  0  0  0
    5.2497    7.8596   -1.9673 H   0  0  0  0  0  0  0  0  0  0  0  0
    4.0870    6.7366    1.3142 H   0  0  0  0  0  0  0  0  0  0  0  0
    6.6555    7.9734    0.5549 H   0  0  0  0  0  0  0  0  0  0  0  0
    7.4749    5.4989    2.2240 H   0  0  0  0  0  0  0  0  0  0  0  0
    8.0765    7.1854    2.4604 H   0  0  0  0  0  0  0  0  0  0  0  0
    6.3401    6.8213    2.7310 H   0  0  0  0  0  0  0  0  0  0  0  0
    8.2076    5.7228   -0.6773 H   0  0  0  0  0  0  0  0  0  0  0  0
   10.7740    7.7755   -1.6449 H   0  0  0  0  0  0  0  0  0  0  0  0
   11.4696    7.0043    1.2505 H   0  0  0  0  0  0  0  0  0  0  0  0
   12.6745    7.1137   -0.0960 H   0  0  0  0  0  0  0  0  0  0  0  0
   11.7670    8.5796    0.4272 H   0  0  0  0  0  0  0  0  0  0  0  0
   10.7953    5.5497   -2.1557 H   0  0  0  0  0  0  0  0  0  0  0  0
   11.4473    2.6446   -0.1776 H   0  0  0  0  0  0  0  0  0  0  0  0
   11.9173    3.5197   -2.4760 H   0  0  0  0  0  0  0  0  0  0  0  0
   13.1139    4.7023   -1.7830 H   0  0  0  0  0  0  0  0  0  0  0  0
   13.4197    2.9304   -1.7060 H   0  0  0  0  0  0  0  0  0  0  0  0
   12.8934    4.8397    1.2293 H   0  0  0  0  0  0  0  0  0  0  0  0
   13.2846    1.3427   -0.0135 H   0  0  0  0  0  0  0  0  0  0  0  0
   16.2042    1.8099    0.8858 H   0  0  0  0  0  0  0  0  0  0  0  0
   15.6271    0.8682   -0.5458 H   0  0  0  0  0  0  0  0  0  0  0  0
   15.4416    2.6566   -0.5156 H   0  0  0  0  0  0  0  0  0  0  0  0
   14.4108    0.6737    2.7074 H   0  0  0  0  0  0  0  0  0  0  0  0
   13.6674   -0.7004   -0.6968 H   0  0  0  0  0  0  0  0  0  0  0  0
   15.9879   -1.3995    0.1181 H   0  0  0  0  0  0  0  0  0  0  0  0
   15.2951   -3.0215    0.5202 H   0  0  0  0  0  0  0  0  0  0  0  0
   15.3227   -2.4302   -1.1890 H   0  0  0  0  0  0  0  0  0  0  0  0
   12.1074   -2.7383    0.6740 H   0  0  0  0  0  0  0  0  0  0  0  0
   11.4181   -5.0058   -1.5095 H   0  0  0  0  0  0  0  0  0  0  0  0
   13.3518   -6.6170   -2.0248 H   0  0  0  0  0  0  0  0  0  0  0  0
   14.4459   -5.1789   -2.0605 H   0  0  0  0  0  0  0  0  0  0  0  0
   13.0699   -5.3125   -3.2277 H   0  0  0  0  0  0  0  0  0  0  0  0
   13.6815   -5.0375    0.5571 H   0  0  0  0  0  0  0  0  0  0  0  0
   10.1688   -6.2371   -0.3081 H   0  0  0  0  0  0  0  0  0  0  0  0
   11.7264   -8.5716    0.9607 H   0  0  0  0  0  0  0  0  0  0  0  0
   11.8996   -7.9466   -0.7216 H   0  0  0  0  0  0  0  0  0  0  0  0
   10.3608   -8.7293   -0.2113 H   0  0  0  0  0  0  0  0  0  0  0  0
    9.9843   -7.1506    2.5708 H   0  0  0  0  0  0  0  0  0  0  0  0
    8.0584   -5.9492   -0.2947 H   0  0  0  0  0  0  0  0  0  0  0  0
    6.2772   -8.4442   -0.2239 H   0  0  0  0  0  0  0  0  0  0  0  0
    7.7542   -8.1998   -1.2397 H   0  0  0  0  0  0  0  0  0  0  0  0
    6.3035   -7.1701   -1.5090 H   0  0  0  0  0  0  0  0  0  0  0  0
    6.5053   -4.8741    1.0313 H   0  0  0  0  0  0  0  0  0  0  0  0
   -1.4894    3.0616    2.1199 H   0  0  0  0  0  0  0  0  0  0  0  0
   -1.1351    4.9542   -0.2487 H   0  0  0  0  0  0  0  0  0  0  0  0
   -1.7487    5.5944    2.6988 H   0  0  0  0  0  0  0  0  0  0  0  0
   -1.7662    6.7781    1.3195 H   0  0  0  0  0  0  0  0  0  0  0  0
   -0.2391    5.9518    1.7945 H   0  0  0  0  0  0  0  0  0  0  0  0
   -4.0166    5.3283    2.1501 H   0  0  0  0  0  0  0  0  0  0  0  0
   -5.9005    5.3482    0.0474 H   0  0  0  0  0  0  0  0  0  0  0  0
   -5.2778    7.5257   -1.2030 H   0  0  0  0  0  0  0  0  0  0  0  0
   -4.2370    6.1141   -1.5776 H   0  0  0  0  0  0  0  0  0  0  0  0
   -3.6371    7.3990   -0.4587 H   0  0  0  0  0  0  0  0  0  0  0  0
   -7.5154    7.9585    2.1368 H   0  0  0  0  0  0  0  0  0  0  0  0
   -7.5075    6.6919   -0.6499 H   0  0  0  0  0  0  0  0  0  0  0  0
   -8.9636    8.4643   -1.3429 H   0  0  0  0  0  0  0  0  0  0  0  0
   -9.0860    9.1262    0.3437 H   0  0  0  0  0  0  0  0  0  0  0  0
   -7.5367    9.1970   -0.5797 H   0  0  0  0  0  0  0  0  0  0  0  0
  -11.0369    6.5444    1.5961 H   0  0  0  0  0  0  0  0  0  0  0  0
  -11.1388    8.2847   -0.6395 H   0  0  0  0  0  0  0  0  0  0  0  0
  -13.0652    7.8782    0.7337 H   0  0  0  0  0  0  0  0  0  0  0  0
  -13.1605    6.1565    0.2388 H   0  0  0  0  0  0  0  0  0  0  0  0
  -13.4573    7.4652   -0.9757 H   0  0  0  0  0  0  0  0  0  0  0  0
  -11.2773    4.6233   -2.8169 H   0  0  0  0  0  0  0  0  0  0  0  0
  -11.3142    4.5193    0.2289 H   0  0  0  0  0  0  0  0  0  0  0  0
   -9.5298    3.2070   -0.8803 H   0  0  0  0  0  0  0  0  0  0  0  0
  -10.7389    2.1529   -0.0528 H   0  0  0  0  0  0  0  0  0  0  0  0
  -10.7739    2.3247   -1.8516 H   0  0  0  0  0  0  0  0  0  0  0  0
  -13.3193    3.7992    1.3435 H   0  0  0  0  0  0  0  0  0  0  0  0
  -14.1747    1.3636   -0.2663 H   0  0  0  0  0  0  0  0  0  0  0  0
  -15.9779    1.0076    1.4557 H   0  0  0  0  0  0  0  0  0  0  0  0
  -16.1915    2.5347    0.5239 H   0  0  0  0  0  0  0  0  0  0  0  0
  -15.5461    2.5914    2.2097 H   0  0  0  0  0  0  0  0  0  0  0  0
  -12.0400   -0.6072    1.9339 H   0  0  0  0  0  0  0  0  0  0  0  0
  -14.5342   -0.7500    0.1819 H   0  0  0  0  0  0  0  0  0  0  0  0
  -15.1752   -2.7553    1.5267 H   0  0  0  0  0  0  0  0  0  0  0  0
  -15.2045   -1.2157    2.4552 H   0  0  0  0  0  0  0  0  0  0  0  0
  -13.8502   -2.3662    2.7068 H   0  0  0  0  0  0  0  0  0  0  0  0
  -12.2725   -3.5366    1.4351 H   0  0  0  0  0  0  0  0  0  0  0  0
  -12.0976   -4.3712   -1.4073 H   0  0  0  0  0  0  0  0  0  0  0  0
  -14.5791   -4.2394   -1.1741 H   0  0  0  0  0  0  0  0  0  0  0  0
  -14.0276   -5.9387   -1.4108 H   0  0  0  0  0  0  0  0  0  0  0  0
  -14.5249   -5.3677    0.2311 H   0  0  0  0  0  0  0  0  0  0  0  0
  -11.6199   -7.1410   -1.4567 H   0  0  0  0  0  0  0  0  0  0  0  0
   -9.2124   -6.0349    0.0535 H   0  0  0  0  0  0  0  0  0  0  0  0
   -9.6776   -5.0164   -2.1999 H   0  0  0  0  0  0  0  0  0  0  0  0
   -8.1059   -5.8689   -2.1369 H   0  0  0  0  0  0  0  0  0  0  0  0
   -9.5207   -6.6472   -2.9635 H   0  0  0  0  0  0  0  0  0  0  0  0
   -7.1779   -8.0057   -1.6351 H   0  0  0  0  0  0  0  0  0  0  0  0
   -7.2850   -9.8148    0.6011 H   0  0  0  0  0  0  0  0  0  0  0  0
   -6.3815   -8.4157    2.4653 H   0  0  0  0  0  0  0  0  0  0  0  0
   -6.6824   -6.9236    1.5079 H   0  0  0  0  0  0  0  0  0  0  0  0
   -8.0638   -7.9633    1.9897 H   0  0  0  0  0  0  0  0  0  0  0  0
   -3.5225   -8.1612   -0.4923 H   0  0  0  0  0  0  0  0  0  0  0  0
   -5.9963   -6.3660   -0.5049 H   0  0  0  0  0  0  0  0  0  0  0  0
   -4.1144   -8.1811   -2.8519 H   0  0  0  0  0  0  0  0  0  0  0  0
   -4.1126   -6.9074   -4.1103 H   0  0  0  0  0  0  0  0  0  0  0  0
   -4.3183   -5.8722    1.2675 H   0  0  0  0  0  0  0  0  0  0  0  0
   -4.5666   -4.5318    0.1041 H   0  0  0  0  0  0  0  0  0  0  0  0
   -2.7968   -3.9993    1.7473 H   0  0  0  0  0  0  0  0  0  0  0  0
   -1.6821   -5.3368    2.1667 H   0  0  0  0  0  0  0  0  0  0  0  0
  1  2  1  0
  2  3  2  0
  2  4  1  0
  4  5  1  0
  5  6  1  0
  6  7  1  0
  7  8  1  0
  8  9  1  0
  9 10  2  0
 10 11  1  0
 11 12  2  0
 12 13  1  0
 13 14  2  0
 13 15  1  0
 15 16  1  0
 16 17  1  0
 17 18  1  0
 18 19  1  0
 19 20  1  0
 20 21  2  0
 20 22  1  0
 22 23  1  0
 22 24  1  0
 24 25  1  0
 25 26  2  0
 25 27  1  0
 27 28  1  0
 27 29  1  0
 29 30  1  0
 30 31  2  0
 30 32  1  0
 32 33  1  0
 32 34  1  0
 34 35  1  0
 35 36  2  0
 35 37  1  0
 37 38  1  0
 37 39  1  0
 39 40  1  0
 40 41  2  0
 40 42  1  0
 42 43  1  0
 42 44  1  0
 44 45  1  0
 45 46  2  0
 45 47  1  0
 47 48  1  0
 47 49  1  0
 49 50  1  0
 50 51  2  0
 50 52  1  0
 52 53  1  0
 52 54  1  0
 54 55  1  0
 55 56  2  0
 55 57  1  0
 57 58  1  0
 57 59  1  0
 59 60  1  0
 60 61  2  0
 60 62  1  0
 62 63  1  0
 62 64  1  0
 64 65  1  0
 65 66  2  0
 65 67  1  0
 67 68  1  0
 67 69  1  0
 69 70  1  0
 70 71  2  0
 18 72  1  0
 72 73  2  0
 72 74  1  0
 74 75  1  0
 75 76  1  0
 75 77  1  0
 77 78  2  0
 77 79  1  0
 79 80  1  0
 80 81  1  0
 80 82  1  0
 82 83  2  0
 82 84  1  0
 84 85  1  0
 85 86  1  0
 85 87  1  0
 87 88  2  0
 87 89  1  0
 89 90  1  0
 90 91  1  0
 90 92  1  0
 92 93  2  0
 92 94  1  0
 94 95  1  0
 95 96  1  0
 95 97  1  0
 97 98  2  0
 97 99  1  0
 99100  1  0
100101  1  0
100102  1  0
102103  2  0
102104  1  0
104105  1  0
105106  1  0
105107  1  0
107108  2  0
107109  1  0
109110  1  0
110111  1  0
110112  1  0
112113  2  0
112114  1  0
114115  1  0
115116  1  0
115117  1  0
117118  2  0
117119  1  0
119120  1  0
120121  1  0
120122  1  0
122123  2  0
122124  1  0
124125  1  0
125126  1  0
126127  1  0
126128  2  0
125129  1  0
129130  1  0
130131  1  0
 70  5  1  0
 14  9  1  0
131 11  1  0
  1132  1  0
  1133  1  0
  1134  1  0
  4135  1  0
  5136  1  1
  6137  1  0
  6138  1  0
  8139  1  0
  8140  1  0
 10141  1  0
 12142  1  0
 14143  1  0
 15144  1  0
 15145  1  0
 17146  1  0
 17147  1  0
 18148  1  6
 19149  1  0
 22150  1  6
 23151  1  0
 23152  1  0
 23153  1  0
 24154  1  0
 27155  1  6
 28156  1  0
 28157  1  0
 28158  1  0
 29159  1  0
 32160  1  1
 33161  1  0
 33162  1  0
 33163  1  0
 34164  1  0
 37165  1  6
 38166  1  0
 38167  1  0
 38168  1  0
 39169  1  0
 42170  1  1
 43171  1  0
 43172  1  0
 43173  1  0
 44174  1  0
 47175  1  6
 48176  1  0
 48177  1  0
 48178  1  0
 49179  1  0
 52180  1  6
 53181  1  0
 53182  1  0
 53183  1  0
 54184  1  0
 57185  1  6
 58186  1  0
 58187  1  0
 58188  1  0
 59189  1  0
 62190  1  6
 63191  1  0
 63192  1  0
 63193  1  0
 64194  1  0
 67195  1  6
 68196  1  0
 68197  1  0
 68198  1  0
 69199  1  0
 74200  1  0
 75201  1  6
 76202  1  0
 76203  1  0
 76204  1  0
 79205  1  0
 80206  1  6
 81207  1  0
 81208  1  0
 81209  1  0
 84210  1  0
 85211  1  6
 86212  1  0
 86213  1  0
 86214  1  0
 89215  1  0
 90216  1  6
 91217  1  0
 91218  1  0
 91219  1  0
 94220  1  0
 95221  1  1
 96222  1  0
 96223  1  0
 96224  1  0
 99225  1  0
100226  1  6
101227  1  0
101228  1  0
101229  1  0
104230  1  0
105231  1  6
106232  1  0
106233  1  0
106234  1  0
109235  1  0
110236  1  6
111237  1  0
111238  1  0
111239  1  0
114240  1  0
115241  1  1
116242  1  0
116243  1  0
116244  1  0
119245  1  0
120246  1  1
121247  1  0
121248  1  0
121249  1  0
124250  1  0
125251  1  1
127252  1  0
127253  1  0
129254  1  0
129255  1  0
131256  1  0
131257  1  0
M  END
