
     RDKit          3D

237239  0  0  0  0  0  0  0  0999 V2000
   -4.5331    4.6778   -1.5575 C   0  0  0  0  0  0  0  0  0  0  0  0
   -3.7704    5.9559   -1.7377 C   0  0  0  0  0  0  0  0  0  0  0  0
   -3.0851    6.1130   -2.7842 O   0  0  0  0  0  0  0  0  0  0  0  0
   -3.8889    7.0377   -0.8094 N   0  0  0  0  0  0  0  0  0  0  0  0
   -3.2287    7.1135    0.5065 C   0  0  2  0  0  0  0  0  0  0  0  0
   -3.0581    5.7645    1.2418 C   0  0  0  0  0  0  0  0  0  0  0  0
   -1.7689    4.7515    0.4126 S   0  0  0  0  0  0  0  0  0  0  0  0
   -1.1390    3.8721    1.8877 C   0  0  0  0  0  0  0  0  0  0  0  0
    0.1734    3.2215    1.5348 C   0  0  0  0  0  0  0  0  0  0  0  0
    1.2529    4.0201    1.1282 C   0  0  0  0  0  0  0  0  0  0  0  0
    2.4368    3.4485    0.6492 C   0  0  0  0  0  0  0  0  0  0  0  0
    2.5913    2.0555    0.6864 C   0  0  0  0  0  0  0  0  0  0  0  0
    1.5540    1.2380    1.1887 C   0  0  0  0  0  0  0  0  0  0  0  0
    0.3283    1.8303    1.5623 C   0  0  0  0  0  0  0  0  0  0  0  0
    1.7554   -0.2505    1.3096 C   0  0  0  0  0  0  0  0  0  0  0  0
    0.6194   -1.1433    0.1969 S   0  0  0  0  0  0  0  0  0  0  0  0
    1.1145   -2.8422    0.6844 C   0  0  0  0  0  0  0  0  0  0  0  0
    1.8641   -3.5647   -0.4628 C   0  0  2  0  0  0  0  0  0  0  0  0
    0.9814   -3.9858   -1.5726 N   0  0  0  0  0  0  0  0  0  0  0  0
   -0.4623   -3.9909   -1.5352 C   0  0  0  0  0  0  0  0  0  0  0  0
   -1.0797   -2.8905   -1.4962 O   0  0  0  0  0  0  0  0  0  0  0  0
   -1.2747   -5.2554   -1.6152 C   0  0  1  0  0  0  0  0  0  0  0  0
   -0.4242   -6.5266   -1.7395 C   0  0  0  0  0  0  0  0  0  0  0  0
   -2.0961   -5.3580   -0.3992 N   0  0  0  0  0  0  0  0  0  0  0  0
   -3.5023   -5.6621   -0.3540 C   0  0  0  0  0  0  0  0  0  0  0  0
   -3.9879   -6.0338    0.7503 O   0  0  0  0  0  0  0  0  0  0  0  0
   -4.3941   -5.6130   -1.5776 C   0  0  1  0  0  0  0  0  0  0  0  0
   -4.3634   -6.9455   -2.3313 C   0  0  0  0  0  0  0  0  0  0  0  0
   -5.7672   -5.1861   -1.2380 N   0  0  0  0  0  0  0  0  0  0  0  0
   -6.6473   -5.8560   -0.3134 C   0  0  0  0  0  0  0  0  0  0  0  0
   -7.0478   -5.2297    0.7064 O   0  0  0  0  0  0  0  0  0  0  0  0
   -7.1977   -7.2293   -0.5863 C   0  0  1  0  0  0  0  0  0  0  0  0
   -6.6930   -8.2032    0.4886 C   0  0  0  0  0  0  0  0  0  0  0  0
   -8.6682   -7.2163   -0.6032 N   0  0  0  0  0  0  0  0  0  0  0  0
   -9.4679   -6.6993   -1.6835 C   0  0  0  0  0  0  0  0  0  0  0  0
  -10.6026   -7.2166   -1.8959 O   0  0  0  0  0  0  0  0  0  0  0  0
   -9.0191   -5.5529   -2.5587 C   0  0  1  0  0  0  0  0  0  0  0  0
   -8.3291   -6.0810   -3.8195 C   0  0  0  0  0  0  0  0  0  0  0  0
  -10.1655   -4.7145   -2.9237 N   0  0  0  0  0  0  0  0  0  0  0  0
  -10.8511   -3.8235   -2.0247 C   0  0  0  0  0  0  0  0  0  0  0  0
  -11.7686   -3.0982   -2.5031 O   0  0  0  0  0  0  0  0  0  0  0  0
  -10.4969   -3.7018   -0.5519 C   0  0  1  0  0  0  0  0  0  0  0  0
   -9.7670   -2.3907   -0.2400 C   0  0  0  0  0  0  0  0  0  0  0  0
  -11.6749   -3.9026    0.3140 N   0  0  0  0  0  0  0  0  0  0  0  0
  -12.9403   -3.2240    0.2086 C   0  0  0  0  0  0  0  0  0  0  0  0
  -13.9954   -3.8899    0.3978 O   0  0  0  0  0  0  0  0  0  0  0  0
  -13.0343   -1.7214    0.0262 C   0  0  1  0  0  0  0  0  0  0  0  0
  -14.4802   -1.2697   -0.2287 C   0  0  0  0  0  0  0  0  0  0  0  0
  -12.5044   -1.0483    1.2223 N   0  0  0  0  0  0  0  0  0  0  0  0
  -12.0768    0.3261    1.2897 C   0  0  0  0  0  0  0  0  0  0  0  0
  -11.6744    0.7766    2.3954 O   0  0  0  0  0  0  0  0  0  0  0  0
  -12.1066    1.2700    0.1009 C   0  0  1  0  0  0  0  0  0  0  0  0
  -13.1813    2.3417    0.3681 C   0  0  0  0  0  0  0  0  0  0  0  0
  -10.7873    1.8857   -0.0588 N   0  0  0  0  0  0  0  0  0  0  0  0
  -10.5501    3.1025   -0.7794 C   0  0  0  0  0  0  0  0  0  0  0  0
  -11.2106    3.3625   -1.8170 O   0  0  0  0  0  0  0  0  0  0  0  0
   -9.4827    4.0419   -0.2923 C   0  0  1  0  0  0  0  0  0  0  0  0
   -8.1398    3.7323   -0.9524 C   0  0  0  0  0  0  0  0  0  0  0  0
   -9.8668    5.4316   -0.5459 N   0  0  0  0  0  0  0  0  0  0  0  0
  -10.3230    6.3681    0.4481 C   0  0  0  0  0  0  0  0  0  0  0  0
  -11.1762    7.2314    0.1023 O   0  0  0  0  0  0  0  0  0  0  0  0
   -9.8033    6.4283    1.8682 C   0  0  1  0  0  0  0  0  0  0  0  0
  -10.6291    5.5555    2.8140 C   0  0  0  0  0  0  0  0  0  0  0  0
   -8.3710    6.1082    1.9462 N   0  0  0  0  0  0  0  0  0  0  0  0
   -7.3940    7.1396    2.0753 C   0  0  0  0  0  0  0  0  0  0  0  0
   -7.4237    7.9005    3.0835 O   0  0  0  0  0  0  0  0  0  0  0  0
   -6.3573    7.3317    0.9981 C   0  0  1  0  0  0  0  0  0  0  0  0
   -7.0527    7.7829   -0.2876 C   0  0  0  0  0  0  0  0  0  0  0  0
   -5.3561    8.3305    1.3979 N   0  0  0  0  0  0  0  0  0  0  0  0
   -3.9306    8.1348    1.3838 C   0  0  0  0  0  0  0  0  0  0  0  0
   -3.2158    8.9208    2.0615 O   0  0  0  0  0  0  0  0  0  0  0  0
    2.6326   -4.7608    0.0746 C   0  0  0  0  0  0  0  0  0  0  0  0
    2.5289   -5.8871   -0.4931 O   0  0  0  0  0  0  0  0  0  0  0  0
    3.5727   -4.6028    1.1422 N   0  0  0  0  0  0  0  0  0  0  0  0
    3.8061   -5.6852    2.1041 C   0  0  2  0  0  0  0  0  0  0  0  0
    4.4872   -5.1508    3.3680 C   0  0  0  0  0  0  0  0  0  0  0  0
    4.5982   -6.8269    1.5030 C   0  0  0  0  0  0  0  0  0  0  0  0
    4.1323   -7.9925    1.6075 O   0  0  0  0  0  0  0  0  0  0  0  0
    5.9240   -6.6657    0.9560 N   0  0  0  0  0  0  0  0  0  0  0  0
    6.2706   -5.6228   -0.0221 C   0  0  2  0  0  0  0  0  0  0  0  0
    7.1721   -6.1788   -1.1362 C   0  0  0  0  0  0  0  0  0  0  0  0
    6.8763   -4.4032    0.6457 C   0  0  0  0  0  0  0  0  0  0  0  0
    6.5722   -3.2654    0.1871 O   0  0  0  0  0  0  0  0  0  0  0  0
    7.7354   -4.4623    1.8003 N   0  0  0  0  0  0  0  0  0  0  0  0
    8.7682   -5.4786    2.0408 C   0  0  2  0  0  0  0  0  0  0  0  0
    8.3802   -6.3087    3.2793 C   0  0  0  0  0  0  0  0  0  0  0  0
   10.1172   -4.8016    2.2192 C   0  0  0  0  0  0  0  0  0  0  0  0
   10.7023   -4.8602    3.3375 O   0  0  0  0  0  0  0  0  0  0  0  0
   10.7411   -4.0477    1.1658 N   0  0  0  0  0  0  0  0  0  0  0  0
   10.4024   -4.1603   -0.2550 C   0  0  2  0  0  0  0  0  0  0  0  0
   11.2487   -5.2650   -0.9029 C   0  0  0  0  0  0  0  0  0  0  0  0
   10.5963   -2.8207   -0.9190 C   0  0  0  0  0  0  0  0  0  0  0  0
    9.6114   -2.0480   -1.0456 O   0  0  0  0  0  0  0  0  0  0  0  0
   11.9095   -2.3820   -1.3231 N   0  0  0  0  0  0  0  0  0  0  0  0
   12.5442   -1.1044   -0.9466 C   0  0  2  0  0  0  0  0  0  0  0  0
   13.8650   -1.4046   -0.2248 C   0  0  0  0  0  0  0  0  0  0  0  0
   11.6840   -0.2252   -0.0623 C   0  0  0  0  0  0  0  0  0  0  0  0
   11.1742   -0.7049    0.9877 O   0  0  0  0  0  0  0  0  0  0  0  0
   11.4616    1.1661   -0.3740 N   0  0  0  0  0  0  0  0  0  0  0  0
   12.5564    2.0732   -0.7534 C   0  0  2  0  0  0  0  0  0  0  0  0
   13.2800    2.5527    0.5103 C   0  0  0  0  0  0  0  0  0  0  0  0
   12.0220    3.2429   -1.5469 C   0  0  0  0  0  0  0  0  0  0  0  0
   10.9482    3.1190   -2.2141 O   0  0  0  0  0  0  0  0  0  0  0  0
   12.7958    4.4512   -1.6714 N   0  0  0  0  0  0  0  0  0  0  0  0
   12.2791    5.8194   -1.4937 C   0  0  2  0  0  0  0  0  0  0  0  0
   12.9521    6.4757   -0.2850 C   0  0  0  0  0  0  0  0  0  0  0  0
   10.7717    5.8775   -1.3840 C   0  0  0  0  0  0  0  0  0  0  0  0
   10.0780    6.0783   -2.4251 O   0  0  0  0  0  0  0  0  0  0  0  0
   10.1192    5.6799   -0.1318 N   0  0  0  0  0  0  0  0  0  0  0  0
    9.5812    6.8104    0.6353 C   0  0  2  0  0  0  0  0  0  0  0  0
    9.0360    6.3752    2.0013 C   0  0  0  0  0  0  0  0  0  0  0  0
    8.5683    7.5978   -0.1767 C   0  0  0  0  0  0  0  0  0  0  0  0
    8.7975    8.8226   -0.3776 O   0  0  0  0  0  0  0  0  0  0  0  0
    7.4201    7.0119   -0.8112 N   0  0  0  0  0  0  0  0  0  0  0  0
    6.8413    5.7028   -0.5059 C   0  0  2  0  0  0  0  0  0  0  0  0
    6.3121    5.0783   -1.7759 C   0  0  0  0  0  0  0  0  0  0  0  0
    6.6907    3.7538   -2.1439 N   0  0  0  0  0  0  0  0  0  0  0  0
    5.5076    5.7194   -2.5064 O   0  0  0  0  0  0  0  0  0  0  0  0
    5.7250    5.8797    0.5363 C   0  0  0  0  0  0  0  0  0  0  0  0
    5.0181    4.2756    1.0874 S   0  0  0  0  0  0  0  0  0  0  0  0
    3.5036    4.3354    0.0662 C   0  0  0  0  0  0  0  0  0  0  0  0
   -3.8337    3.8139   -1.5690 H   0  0  0  0  0  0  0  0  0  0  0  0
   -5.0827    4.6897   -0.6012 H   0  0  0  0  0  0  0  0  0  0  0  0
   -5.2711    4.5700   -2.3802 H   0  0  0  0  0  0  0  0  0  0  0  0
   -4.0352    7.9711   -1.2666 H   0  0  0  0  0  0  0  0  0  0  0  0
   -2.2009    7.4970    0.3280 H   0  0  0  0  0  0  0  0  0  0  0  0
   -2.7393    5.9734    2.2838 H   0  0  0  0  0  0  0  0  0  0  0  0
   -4.0028    5.2041    1.3080 H   0  0  0  0  0  0  0  0  0  0  0  0
   -0.9702    4.5852    2.7248 H   0  0  0  0  0  0  0  0  0  0  0  0
   -1.8965    3.1223    2.1994 H   0  0  0  0  0  0  0  0  0  0  0  0
    1.1425    5.1071    1.1405 H   0  0  0  0  0  0  0  0  0  0  0  0
    3.5051    1.6002    0.3152 H   0  0  0  0  0  0  0  0  0  0  0  0
   -0.5000    1.1999    1.8817 H   0  0  0  0  0  0  0  0  0  0  0  0
    2.7969   -0.5429    1.0530 H   0  0  0  0  0  0  0  0  0  0  0  0
    1.5623   -0.5605    2.3547 H   0  0  0  0  0  0  0  0  0  0  0  0
    0.2092   -3.4193    0.9783 H   0  0  0  0  0  0  0  0  0  0  0  0
    1.7503   -2.7869    1.5922 H   0  0  0  0  0  0  0  0  0  0  0  0
    2.6145   -2.8613   -0.8702 H   0  0  0  0  0  0  0  0  0  0  0  0
    1.4307   -4.4928   -2.3640 H   0  0  0  0  0  0  0  0  0  0  0  0
   -1.8933   -5.1896   -2.5289 H   0  0  0  0  0  0  0  0  0  0  0  0
   -1.0871   -7.4100   -1.8381 H   0  0  0  0  0  0  0  0  0  0  0  0
    0.1883   -6.6680   -0.8285 H   0  0  0  0  0  0  0  0  0  0  0  0
    0.2248   -6.4761   -2.6411 H   0  0  0  0  0  0  0  0  0  0  0  0
   -1.5844   -5.3555    0.5107 H   0  0  0  0  0  0  0  0  0  0  0  0
   -4.0017   -4.8356   -2.2652 H   0  0  0  0  0  0  0  0  0  0  0  0
   -4.5789   -7.7937   -1.6525 H   0  0  0  0  0  0  0  0  0  0  0  0
   -3.3546   -7.1175   -2.7645 H   0  0  0  0  0  0  0  0  0  0  0  0
   -5.0931   -6.9327   -3.1668 H   0  0  0  0  0  0  0  0  0  0  0  0
   -6.0065   -4.1925   -1.4631 H   0  0  0  0  0  0  0  0  0  0  0  0
   -6.8483   -7.6053   -1.5689 H   0  0  0  0  0  0  0  0  0  0  0  0
   -7.0880   -7.9202    1.4928 H   0  0  0  0  0  0  0  0  0  0  0  0
   -7.0284   -9.2349    0.2578 H   0  0  0  0  0  0  0  0  0  0  0  0
   -5.5823   -8.2022    0.5320 H   0  0  0  0  0  0  0  0  0  0  0  0
   -9.1782   -7.7863    0.1097 H   0  0  0  0  0  0  0  0  0  0  0  0
   -8.2956   -4.9049   -2.0291 H   0  0  0  0  0  0  0  0  0  0  0  0
   -8.9992   -6.7729   -4.3781 H   0  0  0  0  0  0  0  0  0  0  0  0
   -8.0619   -5.2321   -4.4904 H   0  0  0  0  0  0  0  0  0  0  0  0
   -7.3954   -6.6173   -3.5600 H   0  0  0  0  0  0  0  0  0  0  0  0
  -10.5229   -4.7618   -3.9097 H   0  0  0  0  0  0  0  0  0  0  0  0
   -9.7722   -4.4923   -0.2815 H   0  0  0  0  0  0  0  0  0  0  0  0
   -8.7275   -2.4409   -0.6367 H   0  0  0  0  0  0  0  0  0  0  0  0
  -10.2526   -1.5090   -0.7047 H   0  0  0  0  0  0  0  0  0  0  0  0
   -9.7072   -2.2345    0.8570 H   0  0  0  0  0  0  0  0  0  0  0  0
  -11.6658   -4.7663    0.9010 H   0  0  0  0  0  0  0  0  0  0  0  0
  -12.4368   -1.4408   -0.8568 H   0  0  0  0  0  0  0  0  0  0  0  0
  -14.8900   -1.7954   -1.1167 H   0  0  0  0  0  0  0  0  0  0  0  0
  -15.1150   -1.4946    0.6529 H   0  0  0  0  0  0  0  0  0  0  0  0
  -14.5277   -0.1813   -0.4262 H   0  0  0  0  0  0  0  0  0  0  0  0
  -12.4499   -1.5937    2.1095 H   0  0  0  0  0  0  0  0  0  0  0  0
  -12.3674    0.7465   -0.8388 H   0  0  0  0  0  0  0  0  0  0  0  0
  -14.1443    1.8731    0.6804 H   0  0  0  0  0  0  0  0  0  0  0  0
  -13.3773    2.9382   -0.5500 H   0  0  0  0  0  0  0  0  0  0  0  0
  -12.8452    3.0265    1.1772 H   0  0  0  0  0  0  0  0  0  0  0  0
   -9.9378    1.3336    0.2375 H   0  0  0  0  0  0  0  0  0  0  0  0
   -9.3794    3.8548    0.7879 H   0  0  0  0  0  0  0  0  0  0  0  0
   -7.8277    2.6856   -0.7394 H   0  0  0  0  0  0  0  0  0  0  0  0
   -8.2035    3.8725   -2.0527 H   0  0  0  0  0  0  0  0  0  0  0  0
   -7.3721    4.4145   -0.5442 H   0  0  0  0  0  0  0  0  0  0  0  0
   -9.9857    5.7111   -1.5489 H   0  0  0  0  0  0  0  0  0  0  0  0
   -9.9368    7.4807    2.2189 H   0  0  0  0  0  0  0  0  0  0  0  0
  -10.6042    4.4825    2.5282 H   0  0  0  0  0  0  0  0  0  0  0  0
  -11.6895    5.8908    2.8038 H   0  0  0  0  0  0  0  0  0  0  0  0
  -10.2494    5.6546    3.8535 H   0  0  0  0  0  0  0  0  0  0  0  0
   -8.0357    5.1209    1.8819 H   0  0  0  0  0  0  0  0  0  0  0  0
   -5.8749    6.3563    0.8114 H   0  0  0  0  0  0  0  0  0  0  0  0
   -7.7529    8.6268   -0.0936 H   0  0  0  0  0  0  0  0  0  0  0  0
   -6.3153    8.1217   -1.0447 H   0  0  0  0  0  0  0  0  0  0  0  0
   -7.6192    6.9396   -0.7313 H   0  0  0  0  0  0  0  0  0  0  0  0
   -5.7044    9.2661    1.7033 H   0  0  0  0  0  0  0  0  0  0  0  0
    3.9582   -3.6509    1.3284 H   0  0  0  0  0  0  0  0  0  0  0  0
    2.8152   -6.0744    2.4264 H   0  0  0  0  0  0  0  0  0  0  0  0
    5.4765   -4.7234    3.1220 H   0  0  0  0  0  0  0  0  0  0  0  0
    4.6178   -5.9727    4.1033 H   0  0  0  0  0  0  0  0  0  0  0  0
    3.8591   -4.3581    3.8328 H   0  0  0  0  0  0  0  0  0  0  0  0
    6.5455   -7.5038    1.0086 H   0  0  0  0  0  0  0  0  0  0  0  0
    5.3464   -5.3024   -0.5456 H   0  0  0  0  0  0  0  0  0  0  0  0
    8.0592   -6.7225   -0.7495 H   0  0  0  0  0  0  0  0  0  0  0  0
    7.5154   -5.3611   -1.8080 H   0  0  0  0  0  0  0  0  0  0  0  0
    6.5915   -6.8996   -1.7526 H   0  0  0  0  0  0  0  0  0  0  0  0
    7.7026   -3.6516    2.4637 H   0  0  0  0  0  0  0  0  0  0  0  0
    8.8439   -6.1736    1.1948 H   0  0  0  0  0  0  0  0  0  0  0  0
    9.1169   -7.1236    3.4331 H   0  0  0  0  0  0  0  0  0  0  0  0
    7.3859   -6.7813    3.1407 H   0  0  0  0  0  0  0  0  0  0  0  0
    8.3407   -5.6757    4.1895 H   0  0  0  0  0  0  0  0  0  0  0  0
   11.5995   -3.5011    1.4172 H   0  0  0  0  0  0  0  0  0  0  0  0
    9.3426   -4.4454   -0.3816 H   0  0  0  0  0  0  0  0  0  0  0  0
   10.9874   -6.2449   -0.4505 H   0  0  0  0  0  0  0  0  0  0  0  0
   11.0449   -5.3160   -1.9935 H   0  0  0  0  0  0  0  0  0  0  0  0
   12.3354   -5.0819   -0.7393 H   0  0  0  0  0  0  0  0  0  0  0  0
   12.4811   -3.0363   -1.8955 H   0  0  0  0  0  0  0  0  0  0  0  0
   12.7752   -0.5662   -1.8880 H   0  0  0  0  0  0  0  0  0  0  0  0
   14.5434   -1.9869   -0.8879 H   0  0  0  0  0  0  0  0  0  0  0  0
   14.3805   -0.4619    0.0493 H   0  0  0  0  0  0  0  0  0  0  0  0
   13.6798   -1.9958    0.6931 H   0  0  0  0  0  0  0  0  0  0  0  0
   10.6228    1.6041    0.0714 H   0  0  0  0  0  0  0  0  0  0  0  0
   13.2946    1.5463   -1.3938 H   0  0  0  0  0  0  0  0  0  0  0  0
   13.5663    1.6767    1.1372 H   0  0  0  0  0  0  0  0  0  0  0  0
   12.6151    3.2168    1.1096 H   0  0  0  0  0  0  0  0  0  0  0  0
   14.2056    3.1079    0.2451 H   0  0  0  0  0  0  0  0  0  0  0  0
   13.8316    4.3505   -1.7838 H   0  0  0  0  0  0  0  0  0  0  0  0
   12.5813    6.4113   -2.3926 H   0  0  0  0  0  0  0  0  0  0  0  0
   12.5993    7.5195   -0.1757 H   0  0  0  0  0  0  0  0  0  0  0  0
   12.7224    5.9112    0.6448 H   0  0  0  0  0  0  0  0  0  0  0  0
   14.0548    6.4897   -0.4246 H   0  0  0  0  0  0  0  0  0  0  0  0
   10.0674    4.7062    0.2538 H   0  0  0  0  0  0  0  0  0  0  0  0
   10.4303    7.5001    0.8574 H   0  0  0  0  0  0  0  0  0  0  0  0
    9.8816    6.1497    2.6882 H   0  0  0  0  0  0  0  0  0  0  0  0
    8.4072    5.4631    1.9365 H   0  0  0  0  0  0  0  0  0  0  0  0
    8.4324    7.1903    2.4593 H   0  0  0  0  0  0  0  0  0  0  0  0
    6.8259    7.6708   -1.3674 H   0  0  0  0  0  0  0  0  0  0  0  0
    7.6176    5.0283   -0.0987 H   0  0  0  0  0  0  0  0  0  0  0  0
    7.2787    3.1647   -1.5116 H   0  0  0  0  0  0  0  0  0  0  0  0
    6.4307    3.3759   -3.0808 H   0  0  0  0  0  0  0  0  0  0  0  0
    4.9524    6.5810    0.1616 H   0  0  0  0  0  0  0  0  0  0  0  0
    6.1640    6.3683    1.4323 H   0  0  0  0  0  0  0  0  0  0  0  0
    3.1196    5.3750    0.0273 H   0  0  0  0  0  0  0  0  0  0  0  0
    3.7231    4.0271   -0.9792 H   0  0  0  0  0  0  0  0  0  0  0  0
  1  2  1  0
  2  3  2  0
  2  4  1  0
  4  5  1  0
  5  6  1  0
  6  7  1  0
  7  8  1  0
  8  9  1  0
  9 10  2  0
 10 11  1  0
 11 12  2  0
 12 13  1  0
 13 14  2  0
 13 15  1  0
 15 16  1  0
 16 17  1  0
 17 18  1  0
 18 19  1  0
 19 20  1  0
 20 21  2  0
 20 22  1  0
 22 23  1  0
 22 24  1  0
 24 25  1  0
 25 26  2  0
 25 27  1  0
 27 28  1  0
 27 29  1  0
 29 30  1  0
 30 31  2  0
 30 32  1  0
 32 33  1  0
 32 34  1  0
 34 35  1  0
 35 36  2  0
 35 37  1  0
 37 38  1  0
 37 39  1  0
 39 40  1  0
 40 41  2  0
 40 42  1  0
 42 43  1  0
 42 44  1  0
 44 45  1  0
 45 46  2  0
 45 47  1  0
 47 48  1  0
 47 49  1  0
 49 50  1  0
 50 51  2  0
 50 52  1  0
 52 53  1  0
 52 54  1  0
 54 55  1  0
 55 56  2  0
 55 57  1  0
 57 58  1  0
 57 59  1  0
 59 60  1  0
 60 61  2  0
 60 62  1  0
 62 63  1  0
 62 64  1  0
 64 65  1  0
 65 66  2  0
 65 67  1  0
 67 68  1  0
 67 69  1  0
 69 70  1  0
 70 71  2  0
 18 72  1  0
 72 73  2  0
 72 74  1  0
 74 75  1  0
 75 76  1  0
 75 77  1  0
 77 78  2  0
 77 79  1  0
 79 80  1  0
 80 81  1  0
 80 82  1  0
 82 83  2  0
 82 84  1  0
 84 85  1  0
 85 86  1  0
 85 87  1  0
 87 88  2  0
 87 89  1  0
 89 90  1  0
 90 91  1  0
 90 92  1  0
 92 93  2  0
 92 94  1  0
 94 95  1  0
 95 96  1  0
 95 97  1  0
 97 98  2  0
 97 99  1  0
 99100  1  0
100101  1  0
100102  1  0
102103  2  0
102104  1  0
104105  1  0
105106  1  0
105107  1  0
107108  2  0
107109  1  0
109110  1  0
110111  1  0
110112  1  0
112113  2  0
112114  1  0
114115  1  0
115116  1  0
116117  1  0
116118  2  0
115119  1  0
119120  1  0
120121  1  0
 70  5  1  0
 14  9  1  0
121 11  1  0
  1122  1  0
  1123  1  0
  1124  1  0
  4125  1  0
  5126  1  6
  6127  1  0
  6128  1  0
  8129  1  0
  8130  1  0
 10131  1  0
 12132  1  0
 14133  1  0
 15134  1  0
 15135  1  0
 17136  1  0
 17137  1  0
 18138  1  6
 19139  1  0
 22140  1  6
 23141  1  0
 23142  1  0
 23143  1  0
 24144  1  0
 27145  1  6
 28146  1  0
 28147  1  0
 28148  1  0
 29149  1  0
 32150  1  6
 33151  1  0
 33152  1  0
 33153  1  0
 34154  1  0
 37155  1  1
 38156  1  0
 38157  1  0
 38158  1  0
 39159  1  0
 42160  1  1
 43161  1  0
 43162  1  0
 43163  1  0
 44164  1  0
 47165  1  6
 48166  1  0
 48167  1  0
 48168  1  0
 49169  1  0
 52170  1  6
 53171  1  0
 53172  1  0
 53173  1  0
 54174  1  0
 57175  1  1
 58176  1  0
 58177  1  0
 58178  1  0
 59179  1  0
 62180  1  1
 63181  1  0
 63182  1  0
 63183  1  0
 64184  1  0
 67185  1  6
 68186  1  0
 68187  1  0
 68188  1  0
 69189  1  0
 74190  1  0
 75191  1  1
 76192  1  0
 76193  1  0
 76194  1  0
 79195  1  0
 80196  1  6
 81197  1  0
 81198  1  0
 81199  1  0
 84200  1  0
 85201  1  6
 86202  1  0
 86203  1  0
 86204  1  0
 89205  1  0
 90206  1  1
 91207  1  0
 91208  1  0
 91209  1  0
 94210  1  0
 95211  1  6
 96212  1  0
 96213  1  0
 96214  1  0
 99215  1  0
100216  1  6
101217  1  0
101218  1  0
101219  1  0
104220  1  0
105221  1  6
106222  1  0
106223  1  0
106224  1  0
109225  1  0
110226  1  1
111227  1  0
111228  1  0
111229  1  0
114230  1  0
115231  1  1
117232  1  0
117233  1  0
119234  1  0
119235  1  0
121236  1  0
121237  1  0
M  END
