
     RDKit          3D

247249  0  0  0  0  0  0  0  0999 V2000
   -4.3770  -10.4245    2.1303 C   0  0  0  0  0  0  0  0  0  0  0  0
   -3.9559   -9.5764    0.9750 C   0  0  0  0  0  0  0  0  0  0  0  0
   -3.1035  -10.0270    0.1633 O   0  0  0  0  0  0  0  0  0  0  0  0
   -4.5457   -8.2803    0.7726 N   0  0  0  0  0  0  0  0  0  0  0  0
   -4.1732   -7.3682   -0.3171 C   0  0  1  0  0  0  0  0  0  0  0  0
   -2.7326   -6.8604   -0.1092 C   0  0  0  0  0  0  0  0  0  0  0  0
   -2.4190   -5.3813   -1.1478 S   0  0  0  0  0  0  0  0  0  0  0  0
   -2.7677   -4.1028    0.1133 C   0  0  0  0  0  0  0  0  0  0  0  0
   -1.5217   -3.3010    0.3818 C   0  0  0  0  0  0  0  0  0  0  0  0
   -0.3840   -3.9321    0.9106 C   0  0  0  0  0  0  0  0  0  0  0  0
    0.7887   -3.1959    1.1701 C   0  0  0  0  0  0  0  0  0  0  0  0
    0.8122   -1.8214    0.9068 C   0  0  0  0  0  0  0  0  0  0  0  0
   -0.3053   -1.1842    0.3489 C   0  0  0  0  0  0  0  0  0  0  0  0
   -1.4764   -1.9253    0.1010 C   0  0  0  0  0  0  0  0  0  0  0  0
   -0.2471    0.2896    0.0330 C   0  0  0  0  0  0  0  0  0  0  0  0
    1.1656    0.6507   -1.0868 S   0  0  0  0  0  0  0  0  0  0  0  0
    0.5026    2.1860   -1.8354 C   0  0  0  0  0  0  0  0  0  0  0  0
    0.4377    3.3564   -0.8449 C   0  0  2  0  0  0  0  0  0  0  0  0
   -0.4085    4.4273   -1.3930 N   0  0  0  0  0  0  0  0  0  0  0  0
   -1.2659    5.2645   -0.5970 C   0  0  0  0  0  0  0  0  0  0  0  0
   -2.1961    5.8928   -1.1751 O   0  0  0  0  0  0  0  0  0  0  0  0
   -1.0747    5.4180    0.8936 C   0  0  1  0  0  0  0  0  0  0  0  0
   -1.1090    6.8904    1.3180 C   0  0  0  0  0  0  0  0  0  0  0  0
   -2.0479    4.5857    1.6226 N   0  0  0  0  0  0  0  0  0  0  0  0
   -3.2096    5.0866    2.2996 C   0  0  0  0  0  0  0  0  0  0  0  0
   -3.2843    4.9737    3.5535 O   0  0  0  0  0  0  0  0  0  0  0  0
   -4.3663    5.6920    1.5413 C   0  0  1  0  0  0  0  0  0  0  0  0
   -5.6673    4.9607    1.8934 C   0  0  0  0  0  0  0  0  0  0  0  0
   -4.4814    7.1198    1.8589 N   0  0  0  0  0  0  0  0  0  0  0  0
   -4.9817    8.0620    0.9062 C   0  0  0  0  0  0  0  0  0  0  0  0
   -4.1993    8.9332    0.4346 O   0  0  0  0  0  0  0  0  0  0  0  0
   -6.4285    8.0237    0.4734 C   0  0  1  0  0  0  0  0  0  0  0  0
   -6.9592    9.4387    0.2270 C   0  0  0  0  0  0  0  0  0  0  0  0
   -6.5738    7.1976   -0.7285 N   0  0  0  0  0  0  0  0  0  0  0  0
   -7.7980    6.5721   -1.1663 C   0  0  0  0  0  0  0  0  0  0  0  0
   -7.7620    5.8485   -2.1993 O   0  0  0  0  0  0  0  0  0  0  0  0
   -9.1329    6.7896   -0.4814 C   0  0  1  0  0  0  0  0  0  0  0  0
  -10.0287    7.6705   -1.3562 C   0  0  0  0  0  0  0  0  0  0  0  0
   -9.8025    5.5094   -0.2251 N   0  0  0  0  0  0  0  0  0  0  0  0
  -10.9659    5.4400    0.6144 C   0  0  0  0  0  0  0  0  0  0  0  0
  -10.9778    6.0660    1.7090 O   0  0  0  0  0  0  0  0  0  0  0  0
  -12.2165    4.7124    0.1756 C   0  0  1  0  0  0  0  0  0  0  0  0
  -13.2998    5.7285   -0.1926 C   0  0  0  0  0  0  0  0  0  0  0  0
  -11.9520    3.8356   -0.9703 N   0  0  0  0  0  0  0  0  0  0  0  0
  -11.8427    2.4159   -0.8304 C   0  0  0  0  0  0  0  0  0  0  0  0
  -10.6993    1.8903   -0.8501 O   0  0  0  0  0  0  0  0  0  0  0  0
  -13.0607    1.5252   -0.6841 C   0  0  1  0  0  0  0  0  0  0  0  0
  -14.3743    2.2918   -0.8792 C   0  0  0  0  0  0  0  0  0  0  0  0
  -12.9933    0.4516   -1.6860 N   0  0  0  0  0  0  0  0  0  0  0  0
  -13.1815   -0.9554   -1.4431 C   0  0  0  0  0  0  0  0  0  0  0  0
  -13.0956   -1.7404   -2.4276 O   0  0  0  0  0  0  0  0  0  0  0  0
  -13.4985   -1.5279   -0.0757 C   0  0  1  0  0  0  0  0  0  0  0  0
  -14.9338   -1.2025    0.3421 C   0  0  0  0  0  0  0  0  0  0  0  0
  -13.3375   -2.9893   -0.0880 N   0  0  0  0  0  0  0  0  0  0  0  0
  -12.3745   -3.6997    0.7059 C   0  0  0  0  0  0  0  0  0  0  0  0
  -12.6884   -4.8197    1.1882 O   0  0  0  0  0  0  0  0  0  0  0  0
  -10.9544   -3.2116    0.8454 C   0  0  1  0  0  0  0  0  0  0  0  0
  -10.5422   -3.1900    2.3262 C   0  0  0  0  0  0  0  0  0  0  0  0
  -10.0845   -4.0432    0.0011 N   0  0  0  0  0  0  0  0  0  0  0  0
   -9.3119   -5.1722    0.4511 C   0  0  0  0  0  0  0  0  0  0  0  0
   -8.5818   -5.0748    1.4735 O   0  0  0  0  0  0  0  0  0  0  0  0
   -9.3311   -6.4722   -0.3080 C   0  0  1  0  0  0  0  0  0  0  0  0
  -10.7683   -6.9835   -0.4557 C   0  0  0  0  0  0  0  0  0  0  0  0
   -8.7362   -6.3017   -1.6382 N   0  0  0  0  0  0  0  0  0  0  0  0
   -7.8200   -7.2256   -2.2545 C   0  0  0  0  0  0  0  0  0  0  0  0
   -7.7670   -7.2673   -3.5167 O   0  0  0  0  0  0  0  0  0  0  0  0
   -6.9496   -8.1666   -1.4514 C   0  0  1  0  0  0  0  0  0  0  0  0
   -7.6652   -9.5033   -1.2473 C   0  0  0  0  0  0  0  0  0  0  0  0
   -5.6807   -8.4035   -2.1547 N   0  0  0  0  0  0  0  0  0  0  0  0
   -4.3758   -8.0431   -1.6668 C   0  0  0  0  0  0  0  0  0  0  0  0
   -3.3775   -8.3421   -2.3726 O   0  0  0  0  0  0  0  0  0  0  0  0
    1.8223    3.8842   -0.5359 C   0  0  0  0  0  0  0  0  0  0  0  0
    2.4721    3.3774    0.4174 O   0  0  0  0  0  0  0  0  0  0  0  0
    2.3932    4.9547   -1.3056 N   0  0  0  0  0  0  0  0  0  0  0  0
    3.4562    5.8283   -0.7774 C   0  0  2  0  0  0  0  0  0  0  0  0
    2.9708    6.5587    0.4805 C   0  0  0  0  0  0  0  0  0  0  0  0
    3.8683    6.8455   -1.8227 C   0  0  0  0  0  0  0  0  0  0  0  0
    2.9793    7.4500   -2.4837 O   0  0  0  0  0  0  0  0  0  0  0  0
    5.2470    7.1671   -2.0593 N   0  0  0  0  0  0  0  0  0  0  0  0
    6.1581    7.5364   -0.9699 C   0  0  2  0  0  0  0  0  0  0  0  0
    5.8765    8.9814   -0.5351 C   0  0  0  0  0  0  0  0  0  0  0  0
    7.6072    7.3975   -1.3975 C   0  0  0  0  0  0  0  0  0  0  0  0
    7.8981    7.4322   -2.6248 O   0  0  0  0  0  0  0  0  0  0  0  0
    8.6811    7.3212   -0.4442 N   0  0  0  0  0  0  0  0  0  0  0  0
    8.5082    6.9722    0.9726 C   0  0  2  0  0  0  0  0  0  0  0  0
    9.8013    7.1880    1.7696 C   0  0  0  0  0  0  0  0  0  0  0  0
    8.0045    5.5494    1.1290 C   0  0  0  0  0  0  0  0  0  0  0  0
    7.0899    5.3442    1.9712 O   0  0  0  0  0  0  0  0  0  0  0  0
    8.4240    4.4596    0.2865 N   0  0  0  0  0  0  0  0  0  0  0  0
    9.7278    4.3415   -0.3698 C   0  0  2  0  0  0  0  0  0  0  0  0
    9.5310    3.9278   -1.8320 C   0  0  0  0  0  0  0  0  0  0  0  0
   10.6064    3.3914    0.4125 C   0  0  0  0  0  0  0  0  0  0  0  0
   10.7602    3.5823    1.6497 O   0  0  0  0  0  0  0  0  0  0  0  0
   11.3017    2.3084   -0.2297 N   0  0  0  0  0  0  0  0  0  0  0  0
   12.7039    1.9447    0.0429 C   0  0  2  0  0  0  0  0  0  0  0  0
   13.5179    3.1319    0.5963 C   0  0  0  0  0  0  0  0  0  0  0  0
   13.3389    1.4788   -1.2472 C   0  0  0  0  0  0  0  0  0  0  0  0
   13.2800    2.2457   -2.2495 O   0  0  0  0  0  0  0  0  0  0  0  0
   13.9917    0.2075   -1.3962 N   0  0  0  0  0  0  0  0  0  0  0  0
   14.4816   -0.6548   -0.3056 C   0  0  2  0  0  0  0  0  0  0  0  0
   15.4782    0.0960    0.5876 C   0  0  0  0  0  0  0  0  0  0  0  0
   15.1883   -1.8630   -0.8817 C   0  0  0  0  0  0  0  0  0  0  0  0
   16.0611   -1.6878   -1.7762 O   0  0  0  0  0  0  0  0  0  0  0  0
   15.0233   -3.1812   -0.3420 N   0  0  0  0  0  0  0  0  0  0  0  0
   13.7264   -3.7984   -0.0419 C   0  0  2  0  0  0  0  0  0  0  0  0
   13.8622   -4.6176    1.2455 C   0  0  0  0  0  0  0  0  0  0  0  0
   13.2876   -4.6580   -1.2034 C   0  0  0  0  0  0  0  0  0  0  0  0
   14.1334   -5.0546   -2.0516 O   0  0  0  0  0  0  0  0  0  0  0  0
   11.9043   -4.9747   -1.4145 N   0  0  0  0  0  0  0  0  0  0  0  0
   11.1921   -5.9961   -0.6312 C   0  0  2  0  0  0  0  0  0  0  0  0
   12.0147   -7.2906   -0.5469 C   0  0  0  0  0  0  0  0  0  0  0  0
    9.8545   -6.3013   -1.2674 C   0  0  0  0  0  0  0  0  0  0  0  0
    9.7933   -6.4497   -2.5185 O   0  0  0  0  0  0  0  0  0  0  0  0
    8.6507   -6.4387   -0.4979 N   0  0  0  0  0  0  0  0  0  0  0  0
    8.5925   -7.0493    0.8382 C   0  0  2  0  0  0  0  0  0  0  0  0
    8.4069   -8.5638    0.6892 C   0  0  0  0  0  0  0  0  0  0  0  0
    7.4517   -6.4676    1.6446 C   0  0  0  0  0  0  0  0  0  0  0  0
    7.1878   -6.9392    2.7832 O   0  0  0  0  0  0  0  0  0  0  0  0
    6.6322   -5.4189    1.1095 N   0  0  0  0  0  0  0  0  0  0  0  0
    5.1660   -5.5127    1.1033 C   0  0  2  0  0  0  0  0  0  0  0  0
    4.7587   -6.8220    0.4671 C   0  0  0  0  0  0  0  0  0  0  0  0
    4.1966   -7.8656    1.2588 N   0  0  0  0  0  0  0  0  0  0  0  0
    4.9500   -7.0093   -0.7664 O   0  0  0  0  0  0  0  0  0  0  0  0
    4.5639   -4.3001    0.3645 C   0  0  0  0  0  0  0  0  0  0  0  0
    2.7888   -4.5065   -0.0446 S   0  0  0  0  0  0  0  0  0  0  0  0
    2.0623   -3.9083    1.5230 C   0  0  0  0  0  0  0  0  0  0  0  0
   -4.8081  -11.3784    1.7560 H   0  0  0  0  0  0  0  0  0  0  0  0
   -3.4946  -10.6596    2.7614 H   0  0  0  0  0  0  0  0  0  0  0  0
   -5.1359   -9.9096    2.7548 H   0  0  0  0  0  0  0  0  0  0  0  0
   -5.2810   -7.9537    1.4419 H   0  0  0  0  0  0  0  0  0  0  0  0
   -4.8421   -6.4799   -0.2733 H   0  0  0  0  0  0  0  0  0  0  0  0
   -1.9959   -7.6458   -0.3884 H   0  0  0  0  0  0  0  0  0  0  0  0
   -2.5487   -6.6471    0.9647 H   0  0  0  0  0  0  0  0  0  0  0  0
   -3.1277   -4.5237    1.0737 H   0  0  0  0  0  0  0  0  0  0  0  0
   -3.5779   -3.4531   -0.2772 H   0  0  0  0  0  0  0  0  0  0  0  0
   -0.3900   -5.0023    1.0834 H   0  0  0  0  0  0  0  0  0  0  0  0
    1.7181   -1.2546    1.0903 H   0  0  0  0  0  0  0  0  0  0  0  0
   -2.3478   -1.4340   -0.3160 H   0  0  0  0  0  0  0  0  0  0  0  0
   -0.1129    0.8464    0.9805 H   0  0  0  0  0  0  0  0  0  0  0  0
   -1.2021    0.6171   -0.4273 H   0  0  0  0  0  0  0  0  0  0  0  0
    1.1501    2.4608   -2.6947 H   0  0  0  0  0  0  0  0  0  0  0  0
   -0.5061    1.9676   -2.2446 H   0  0  0  0  0  0  0  0  0  0  0  0
   -0.0231    2.9928    0.0960 H   0  0  0  0  0  0  0  0  0  0  0  0
   -0.4482    4.5512   -2.4289 H   0  0  0  0  0  0  0  0  0  0  0  0
   -0.0563    5.0665    1.1659 H   0  0  0  0  0  0  0  0  0  0  0  0
   -1.0457    6.9707    2.4269 H   0  0  0  0  0  0  0  0  0  0  0  0
   -2.0307    7.3909    0.9660 H   0  0  0  0  0  0  0  0  0  0  0  0
   -0.2415    7.4308    0.8791 H   0  0  0  0  0  0  0  0  0  0  0  0
   -1.7211    3.6373    1.9062 H   0  0  0  0  0  0  0  0  0  0  0  0
   -4.1846    5.5629    0.4514 H   0  0  0  0  0  0  0  0  0  0  0  0
   -6.4853    5.2523    1.2035 H   0  0  0  0  0  0  0  0  0  0  0  0
   -5.5309    3.8589    1.8033 H   0  0  0  0  0  0  0  0  0  0  0  0
   -5.9787    5.2030    2.9343 H   0  0  0  0  0  0  0  0  0  0  0  0
   -3.9416    7.5089    2.6654 H   0  0  0  0  0  0  0  0  0  0  0  0
   -6.9935    7.5760    1.3187 H   0  0  0  0  0  0  0  0  0  0  0  0
   -6.7898   10.0735    1.1257 H   0  0  0  0  0  0  0  0  0  0  0  0
   -6.4430    9.9029   -0.6412 H   0  0  0  0  0  0  0  0  0  0  0  0
   -8.0488    9.4255    0.0271 H   0  0  0  0  0  0  0  0  0  0  0  0
   -5.7245    7.0414   -1.3221 H   0  0  0  0  0  0  0  0  0  0  0  0
   -8.9898    7.3021    0.4905 H   0  0  0  0  0  0  0  0  0  0  0  0
   -9.4917    8.5905   -1.6694 H   0  0  0  0  0  0  0  0  0  0  0  0
  -10.3493    7.1151   -2.2647 H   0  0  0  0  0  0  0  0  0  0  0  0
  -10.9315    7.9687   -0.7850 H   0  0  0  0  0  0  0  0  0  0  0  0
   -9.5201    4.6548   -0.7585 H   0  0  0  0  0  0  0  0  0  0  0  0
  -12.5818    4.1034    1.0334 H   0  0  0  0  0  0  0  0  0  0  0  0
  -13.5890    6.3247    0.7016 H   0  0  0  0  0  0  0  0  0  0  0  0
  -14.2034    5.2143   -0.5729 H   0  0  0  0  0  0  0  0  0  0  0  0
  -12.9333    6.4186   -0.9801 H   0  0  0  0  0  0  0  0  0  0  0  0
  -11.6331    4.2687   -1.8679 H   0  0  0  0  0  0  0  0  0  0  0  0
  -13.0470    1.1129    0.3399 H   0  0  0  0  0  0  0  0  0  0  0  0
  -15.2235    1.5817   -0.9631 H   0  0  0  0  0  0  0  0  0  0  0  0
  -14.5712    2.9441   -0.0036 H   0  0  0  0  0  0  0  0  0  0  0  0
  -14.3488    2.8993   -1.8061 H   0  0  0  0  0  0  0  0  0  0  0  0
  -12.8651    0.7466   -2.6825 H   0  0  0  0  0  0  0  0  0  0  0  0
  -12.8161   -1.0901    0.6820 H   0  0  0  0  0  0  0  0  0  0  0  0
  -15.6471   -1.4520   -0.4729 H   0  0  0  0  0  0  0  0  0  0  0  0
  -15.2048   -1.7921    1.2434 H   0  0  0  0  0  0  0  0  0  0  0  0
  -15.0403   -0.1335    0.6094 H   0  0  0  0  0  0  0  0  0  0  0  0
  -14.0684   -3.5557   -0.5792 H   0  0  0  0  0  0  0  0  0  0  0  0
  -10.8682   -2.1687    0.4733 H   0  0  0  0  0  0  0  0  0  0  0  0
   -9.5027   -2.8140    2.4256 H   0  0  0  0  0  0  0  0  0  0  0  0
  -10.6211   -4.2006    2.7856 H   0  0  0  0  0  0  0  0  0  0  0  0
  -11.2076   -2.5009    2.8933 H   0  0  0  0  0  0  0  0  0  0  0  0
  -10.2579   -3.9681   -1.0271 H   0  0  0  0  0  0  0  0  0  0  0  0
   -8.7786   -7.2275    0.2882 H   0  0  0  0  0  0  0  0  0  0  0  0
  -10.7691   -7.9565   -0.9866 H   0  0  0  0  0  0  0  0  0  0  0  0
  -11.2228   -7.1296    0.5467 H   0  0  0  0  0  0  0  0  0  0  0  0
  -11.3869   -6.2679   -1.0342 H   0  0  0  0  0  0  0  0  0  0  0  0
   -9.1518   -5.5758   -2.2627 H   0  0  0  0  0  0  0  0  0  0  0  0
   -6.7650   -7.7134   -0.4593 H   0  0  0  0  0  0  0  0  0  0  0  0
   -7.8853   -9.9837   -2.2258 H   0  0  0  0  0  0  0  0  0  0  0  0
   -8.6184   -9.3623   -0.6979 H   0  0  0  0  0  0  0  0  0  0  0  0
   -7.0221  -10.1844   -0.6517 H   0  0  0  0  0  0  0  0  0  0  0  0
   -5.7245   -8.8786   -3.0815 H   0  0  0  0  0  0  0  0  0  0  0  0
    1.9822    5.1511   -2.2447 H   0  0  0  0  0  0  0  0  0  0  0  0
    4.3373    5.1996   -0.5180 H   0  0  0  0  0  0  0  0  0  0  0  0
    3.7930    7.1573    0.9255 H   0  0  0  0  0  0  0  0  0  0  0  0
    2.6328    5.8378    1.2513 H   0  0  0  0  0  0  0  0  0  0  0  0
    2.1211    7.2347    0.2366 H   0  0  0  0  0  0  0  0  0  0  0  0
    5.4488    7.5709   -3.0035 H   0  0  0  0  0  0  0  0  0  0  0  0
    5.9792    6.8628   -0.1099 H   0  0  0  0  0  0  0  0  0  0  0  0
    4.8575    9.0470   -0.1075 H   0  0  0  0  0  0  0  0  0  0  0  0
    5.9442    9.6625   -1.4075 H   0  0  0  0  0  0  0  0  0  0  0  0
    6.6010    9.3090    0.2359 H   0  0  0  0  0  0  0  0  0  0  0  0
    9.6473    7.5101   -0.8051 H   0  0  0  0  0  0  0  0  0  0  0  0
    7.7572    7.6628    1.4128 H   0  0  0  0  0  0  0  0  0  0  0  0
    9.6056    7.0192    2.8511 H   0  0  0  0  0  0  0  0  0  0  0  0
   10.1505    8.2390    1.6446 H   0  0  0  0  0  0  0  0  0  0  0  0
   10.6135    6.5080    1.4479 H   0  0  0  0  0  0  0  0  0  0  0  0
    7.8254    3.6035    0.3030 H   0  0  0  0  0  0  0  0  0  0  0  0
   10.2525    5.3121   -0.3861 H   0  0  0  0  0  0  0  0  0  0  0  0
    8.9795    2.9664   -1.8958 H   0  0  0  0  0  0  0  0  0  0  0  0
    8.9429    4.7057   -2.3599 H   0  0  0  0  0  0  0  0  0  0  0  0
   10.5102    3.8302   -2.3450 H   0  0  0  0  0  0  0  0  0  0  0  0
   10.7606    1.7129   -0.8949 H   0  0  0  0  0  0  0  0  0  0  0  0
   12.7038    1.1262    0.7947 H   0  0  0  0  0  0  0  0  0  0  0  0
   13.2724    3.3004    1.6640 H   0  0  0  0  0  0  0  0  0  0  0  0
   13.3056    4.0569    0.0174 H   0  0  0  0  0  0  0  0  0  0  0  0
   14.6081    2.9351    0.5347 H   0  0  0  0  0  0  0  0  0  0  0  0
   14.1790   -0.0865   -2.3811 H   0  0  0  0  0  0  0  0  0  0  0  0
   13.6253   -0.9694    0.3238 H   0  0  0  0  0  0  0  0  0  0  0  0
   16.0668   -0.6184    1.2053 H   0  0  0  0  0  0  0  0  0  0  0  0
   16.1844    0.7012   -0.0260 H   0  0  0  0  0  0  0  0  0  0  0  0
   14.9520    0.7598    1.3008 H   0  0  0  0  0  0  0  0  0  0  0  0
   15.8454   -3.8200   -0.4289 H   0  0  0  0  0  0  0  0  0  0  0  0
   12.9524   -3.0247    0.1210 H   0  0  0  0  0  0  0  0  0  0  0  0
   12.8771   -4.9918    1.5806 H   0  0  0  0  0  0  0  0  0  0  0  0
   14.5522   -5.4734    1.0960 H   0  0  0  0  0  0  0  0  0  0  0  0
   14.2686   -3.9730    2.0517 H   0  0  0  0  0  0  0  0  0  0  0  0
   11.4707   -4.5833   -2.2782 H   0  0  0  0  0  0  0  0  0  0  0  0
   11.0295   -5.5991    0.3879 H   0  0  0  0  0  0  0  0  0  0  0  0
   11.4434   -8.0788   -0.0132 H   0  0  0  0  0  0  0  0  0  0  0  0
   12.9489   -7.1151    0.0233 H   0  0  0  0  0  0  0  0  0  0  0  0
   12.2792   -7.6493   -1.5653 H   0  0  0  0  0  0  0  0  0  0  0  0
    7.7581   -6.4342   -1.0438 H   0  0  0  0  0  0  0  0  0  0  0  0
    9.5293   -6.8650    1.4043 H   0  0  0  0  0  0  0  0  0  0  0  0
    7.4230   -8.7895    0.2274 H   0  0  0  0  0  0  0  0  0  0  0  0
    9.2028   -8.9792    0.0375 H   0  0  0  0  0  0  0  0  0  0  0  0
    8.4698   -9.0629    1.6800 H   0  0  0  0  0  0  0  0  0  0  0  0
    7.1062   -4.6330    0.6086 H   0  0  0  0  0  0  0  0  0  0  0  0
    4.8056   -5.4879    2.1551 H   0  0  0  0  0  0  0  0  0  0  0  0
    3.9610   -8.7866    0.8260 H   0  0  0  0  0  0  0  0  0  0  0  0
    4.1235   -7.7708    2.2992 H   0  0  0  0  0  0  0  0  0  0  0  0
    4.7298   -3.3779    0.9592 H   0  0  0  0  0  0  0  0  0  0  0  0
    5.0979   -4.1576   -0.6004 H   0  0  0  0  0  0  0  0  0  0  0  0
    1.8629   -4.7791    2.1847 H   0  0  0  0  0  0  0  0  0  0  0  0
    2.7424   -3.2161    2.0659 H   0  0  0  0  0  0  0  0  0  0  0  0
  1  2  1  0
  2  3  2  0
  2  4  1  0
  4  5  1  0
  5  6  1  0
  6  7  1  0
  7  8  1  0
  8  9  1  0
  9 10  2  0
 10 11  1  0
 11 12  2  0
 12 13  1  0
 13 14  2  0
 13 15  1  0
 15 16  1  0
 16 17  1  0
 17 18  1  0
 18 19  1  0
 19 20  1  0
 20 21  2  0
 20 22  1  0
 22 23  1  0
 22 24  1  0
 24 25  1  0
 25 26  2  0
 25 27  1  0
 27 28  1  0
 27 29  1  0
 29 30  1  0
 30 31  2  0
 30 32  1  0
 32 33  1  0
 32 34  1  0
 34 35  1  0
 35 36  2  0
 35 37  1  0
 37 38  1  0
 37 39  1  0
 39 40  1  0
 40 41  2  0
 40 42  1  0
 42 43  1  0
 42 44  1  0
 44 45  1  0
 45 46  2  0
 45 47  1  0
 47 48  1  0
 47 49  1  0
 49 50  1  0
 50 51  2  0
 50 52  1  0
 52 53  1  0
 52 54  1  0
 54 55  1  0
 55 56  2  0
 55 57  1  0
 57 58  1  0
 57 59  1  0
 59 60  1  0
 60 61  2  0
 60 62  1  0
 62 63  1  0
 62 64  1  0
 64 65  1  0
 65 66  2  0
 65 67  1  0
 67 68  1  0
 67 69  1  0
 69 70  1  0
 70 71  2  0
 18 72  1  0
 72 73  2  0
 72 74  1  0
 74 75  1  0
 75 76  1  0
 75 77  1  0
 77 78  2  0
 77 79  1  0
 79 80  1  0
 80 81  1  0
 80 82  1  0
 82 83  2  0
 82 84  1  0
 84 85  1  0
 85 86  1  0
 85 87  1  0
 87 88  2  0
 87 89  1  0
 89 90  1  0
 90 91  1  0
 90 92  1  0
 92 93  2  0
 92 94  1  0
 94 95  1  0
 95 96  1  0
 95 97  1  0
 97 98  2  0
 97 99  1  0
 99100  1  0
100101  1  0
100102  1  0
102103  2  0
102104  1  0
104105  1  0
105106  1  0
105107  1  0
107108  2  0
107109  1  0
109110  1  0
110111  1  0
110112  1  0
112113  2  0
112114  1  0
114115  1  0
115116  1  0
115117  1  0
117118  2  0
117119  1  0
119120  1  0
120121  1  0
121122  1  0
121123  2  0
120124  1  0
124125  1  0
125126  1  0
 70  5  1  0
 14  9  1  0
126 11  1  0
  1127  1  0
  1128  1  0
  1129  1  0
  4130  1  0
  5131  1  6
  6132  1  0
  6133  1  0
  8134  1  0
  8135  1  0
 10136  1  0
 12137  1  0
 14138  1  0
 15139  1  0
 15140  1  0
 17141  1  0
 17142  1  0
 18143  1  1
 19144  1  0
 22145  1  6
 23146  1  0
 23147  1  0
 23148  1  0
 24149  1  0
 27150  1  6
 28151  1  0
 28152  1  0
 28153  1  0
 29154  1  0
 32155  1  1
 33156  1  0
 33157  1  0
 33158  1  0
 34159  1  0
 37160  1  1
 38161  1  0
 38162  1  0
 38163  1  0
 39164  1  0
 42165  1  1
 43166  1  0
 43167  1  0
 43168  1  0
 44169  1  0
 47170  1  1
 48171  1  0
 48172  1  0
 48173  1  0
 49174  1  0
 52175  1  1
 53176  1  0
 53177  1  0
 53178  1  0
 54179  1  0
 57180  1  6
 58181  1  0
 58182  1  0
 58183  1  0
 59184  1  0
 62185  1  1
 63186  1  0
 63187  1  0
 63188  1  0
 64189  1  0
 67190  1  1
 68191  1  0
 68192  1  0
 68193  1  0
 69194  1  0
 74195  1  0
 75196  1  1
 76197  1  0
 76198  1  0
 76199  1  0
 79200  1  0
 80201  1  1
 81202  1  0
 81203  1  0
 81204  1  0
 84205  1  0
 85206  1  1
 86207  1  0
 86208  1  0
 86209  1  0
 89210  1  0
 90211  1  6
 91212  1  0
 91213  1  0
 91214  1  0
 94215  1  0
 95216  1  1
 96217  1  0
 96218  1  0
 96219  1  0
 99220  1  0
100221  1  1
101222  1  0
101223  1  0
101224  1  0
104225  1  0
105226  1  1
106227  1  0
106228  1  0
106229  1  0
109230  1  0
110231  1  1
111232  1  0
111233  1  0
111234  1  0
114235  1  0
115236  1  1
116237  1  0
116238  1  0
116239  1  0
119240  1  0
120241  1  1
122242  1  0
122243  1  0
124244  1  0
124245  1  0
126246  1  0
126247  1  0
M  END
