
     RDKit          3D

257259  0  0  0  0  0  0  0  0999 V2000
   -3.4496   -8.8315   -0.1576 C   0  0  0  0  0  0  0  0  0  0  0  0
   -4.5983   -8.2301   -0.8996 C   0  0  0  0  0  0  0  0  0  0  0  0
   -5.0982   -8.8586   -1.8731 O   0  0  0  0  0  0  0  0  0  0  0  0
   -5.1524   -6.9536   -0.5322 N   0  0  0  0  0  0  0  0  0  0  0  0
   -4.6619   -6.0966    0.5541 C   0  0  1  0  0  0  0  0  0  0  0  0
   -4.0461   -4.8364   -0.0605 C   0  0  0  0  0  0  0  0  0  0  0  0
   -3.1607   -3.8171    1.1691 S   0  0  0  0  0  0  0  0  0  0  0  0
   -2.3948   -2.6877   -0.0560 C   0  0  0  0  0  0  0  0  0  0  0  0
   -0.9037   -2.8707   -0.0579 C   0  0  0  0  0  0  0  0  0  0  0  0
   -0.3494   -4.0933   -0.4612 C   0  0  0  0  0  0  0  0  0  0  0  0
    1.0402   -4.2674   -0.4975 C   0  0  0  0  0  0  0  0  0  0  0  0
    1.8822   -3.1818   -0.2063 C   0  0  0  0  0  0  0  0  0  0  0  0
    1.3401   -1.9339    0.1705 C   0  0  0  0  0  0  0  0  0  0  0  0
   -0.0602   -1.8082    0.2789 C   0  0  0  0  0  0  0  0  0  0  0  0
    2.2712   -0.7432    0.2843 C   0  0  0  0  0  0  0  0  0  0  0  0
    1.6073    0.6901    1.2170 S   0  0  0  0  0  0  0  0  0  0  0  0
    0.5863    1.4111   -0.1368 C   0  0  0  0  0  0  0  0  0  0  0  0
    1.0830    2.8101   -0.5146 C   0  0  2  0  0  0  0  0  0  0  0  0
    0.0797    3.4591   -1.3695 N   0  0  0  0  0  0  0  0  0  0  0  0
   -0.4213    4.7528   -1.0728 C   0  0  0  0  0  0  0  0  0  0  0  0
   -0.0861    5.7287   -1.7997 O   0  0  0  0  0  0  0  0  0  0  0  0
   -1.4302    4.9523    0.0306 C   0  0  1  0  0  0  0  0  0  0  0  0
   -0.8984    5.9517    1.0630 C   0  0  0  0  0  0  0  0  0  0  0  0
   -2.6961    5.4377   -0.5366 N   0  0  0  0  0  0  0  0  0  0  0  0
   -3.8529    5.6719    0.2803 C   0  0  0  0  0  0  0  0  0  0  0  0
   -4.1230    4.8881    1.2322 O   0  0  0  0  0  0  0  0  0  0  0  0
   -4.7407    6.8653    0.0110 C   0  0  1  0  0  0  0  0  0  0  0  0
   -3.9120    8.1423    0.1573 C   0  0  0  0  0  0  0  0  0  0  0  0
   -5.3366    6.7852   -1.3244 N   0  0  0  0  0  0  0  0  0  0  0  0
   -6.6813    7.1697   -1.6403 C   0  0  0  0  0  0  0  0  0  0  0  0
   -7.2044    6.7302   -2.6978 O   0  0  0  0  0  0  0  0  0  0  0  0
   -7.4821    8.0902   -0.7404 C   0  0  1  0  0  0  0  0  0  0  0  0
   -8.4133    8.9982   -1.5539 C   0  0  0  0  0  0  0  0  0  0  0  0
   -8.2419    7.3344    0.2661 N   0  0  0  0  0  0  0  0  0  0  0  0
   -9.2420    6.3638   -0.0842 C   0  0  0  0  0  0  0  0  0  0  0  0
   -8.9166    5.3753   -0.7946 O   0  0  0  0  0  0  0  0  0  0  0  0
  -10.6743    6.4777    0.3943 C   0  0  1  0  0  0  0  0  0  0  0  0
  -10.9434    7.7815    1.1551 C   0  0  0  0  0  0  0  0  0  0  0  0
  -11.5685    6.4099   -0.7669 N   0  0  0  0  0  0  0  0  0  0  0  0
  -12.7492    5.5967   -0.8278 C   0  0  0  0  0  0  0  0  0  0  0  0
  -13.2143    5.2940   -1.9658 O   0  0  0  0  0  0  0  0  0  0  0  0
  -13.4680    5.1313    0.4164 C   0  0  1  0  0  0  0  0  0  0  0  0
  -14.9895    5.2324    0.2656 C   0  0  0  0  0  0  0  0  0  0  0  0
  -13.0723    3.7605    0.7721 N   0  0  0  0  0  0  0  0  0  0  0  0
  -13.4557    2.6005    0.0160 C   0  0  0  0  0  0  0  0  0  0  0  0
  -13.4632    2.6501   -1.2454 O   0  0  0  0  0  0  0  0  0  0  0  0
  -13.7687    1.2899    0.7068 C   0  0  1  0  0  0  0  0  0  0  0  0
  -14.4168    1.5045    2.0789 C   0  0  0  0  0  0  0  0  0  0  0  0
  -14.6921    0.5057   -0.1228 N   0  0  0  0  0  0  0  0  0  0  0  0
  -14.6639   -0.9269   -0.2220 C   0  0  0  0  0  0  0  0  0  0  0  0
  -15.7552   -1.5568   -0.2733 O   0  0  0  0  0  0  0  0  0  0  0  0
  -13.3682   -1.7035   -0.2486 C   0  0  1  0  0  0  0  0  0  0  0  0
  -13.0406   -2.2762    1.1351 C   0  0  0  0  0  0  0  0  0  0  0  0
  -13.3976   -2.7458   -1.2943 N   0  0  0  0  0  0  0  0  0  0  0  0
  -14.2845   -3.8693   -1.2928 C   0  0  0  0  0  0  0  0  0  0  0  0
  -15.2173   -3.9115   -2.1443 O   0  0  0  0  0  0  0  0  0  0  0  0
  -14.0329   -5.0654   -0.4193 C   0  0  1  0  0  0  0  0  0  0  0  0
  -15.2639   -5.3736    0.4369 C   0  0  0  0  0  0  0  0  0  0  0  0
  -13.7174   -6.2219   -1.2597 N   0  0  0  0  0  0  0  0  0  0  0  0
  -12.5867   -7.0658   -1.0261 C   0  0  0  0  0  0  0  0  0  0  0  0
  -12.7849   -8.2660   -0.6912 O   0  0  0  0  0  0  0  0  0  0  0  0
  -11.1633   -6.6042   -1.2427 C   0  0  1  0  0  0  0  0  0  0  0  0
  -11.0440   -5.1961   -1.8356 C   0  0  0  0  0  0  0  0  0  0  0  0
  -10.4053   -6.6835    0.0064 N   0  0  0  0  0  0  0  0  0  0  0  0
   -8.9803   -6.8455    0.0076 C   0  0  0  0  0  0  0  0  0  0  0  0
   -8.3868   -7.1627   -1.0590 O   0  0  0  0  0  0  0  0  0  0  0  0
   -8.1787   -6.6568    1.2704 C   0  0  1  0  0  0  0  0  0  0  0  0
   -7.6178   -8.0076    1.7324 C   0  0  0  0  0  0  0  0  0  0  0  0
   -7.1303   -5.6534    1.0175 N   0  0  0  0  0  0  0  0  0  0  0  0
   -5.7854   -5.7631    1.4931 C   0  0  0  0  0  0  0  0  0  0  0  0
   -5.5416   -5.4955    2.7056 O   0  0  0  0  0  0  0  0  0  0  0  0
    2.3911    2.7531   -1.2685 C   0  0  0  0  0  0  0  0  0  0  0  0
    2.4398    2.1008   -2.3450 O   0  0  0  0  0  0  0  0  0  0  0  0
    3.5630    3.4861   -0.8698 N   0  0  0  0  0  0  0  0  0  0  0  0
    3.8172    3.9592    0.5020 C   0  0  2  0  0  0  0  0  0  0  0  0
    3.2117    5.3482    0.7414 C   0  0  0  0  0  0  0  0  0  0  0  0
    5.2948    3.9334    0.8279 C   0  0  0  0  0  0  0  0  0  0  0  0
    5.6532    3.3820    1.9053 O   0  0  0  0  0  0  0  0  0  0  0  0
    6.3205    4.4115   -0.0634 N   0  0  0  0  0  0  0  0  0  0  0  0
    6.2071    5.5980   -0.9257 C   0  0  2  0  0  0  0  0  0  0  0  0
    7.3175    5.6087   -1.9851 C   0  0  0  0  0  0  0  0  0  0  0  0
    6.2505    6.8665   -0.1066 C   0  0  0  0  0  0  0  0  0  0  0  0
    5.7293    7.9164   -0.5739 O   0  0  0  0  0  0  0  0  0  0  0  0
    6.7829    6.8837    1.2249 N   0  0  0  0  0  0  0  0  0  0  0  0
    8.1926    6.6021    1.4773 C   0  0  2  0  0  0  0  0  0  0  0  0
    8.3787    6.0564    2.8932 C   0  0  0  0  0  0  0  0  0  0  0  0
    8.9948    7.8657    1.2767 C   0  0  0  0  0  0  0  0  0  0  0  0
    8.6621    8.9084    1.8999 O   0  0  0  0  0  0  0  0  0  0  0  0
   10.0638    7.9291    0.3306 N   0  0  0  0  0  0  0  0  0  0  0  0
   11.1923    6.9837    0.3641 C   0  0  2  0  0  0  0  0  0  0  0  0
   12.2554    7.5174    1.3263 C   0  0  0  0  0  0  0  0  0  0  0  0
   11.7600    6.8024   -1.0297 C   0  0  0  0  0  0  0  0  0  0  0  0
   11.7550    7.7717   -1.8362 O   0  0  0  0  0  0  0  0  0  0  0  0
   12.2842    5.5434   -1.4747 N   0  0  0  0  0  0  0  0  0  0  0  0
   13.1684    4.7274   -0.6342 C   0  0  2  0  0  0  0  0  0  0  0  0
   14.5852    5.3114   -0.6479 C   0  0  0  0  0  0  0  0  0  0  0  0
   13.1896    3.3059   -1.1174 C   0  0  0  0  0  0  0  0  0  0  0  0
   13.7209    3.0243   -2.2274 O   0  0  0  0  0  0  0  0  0  0  0  0
   12.6200    2.2655   -0.3072 N   0  0  0  0  0  0  0  0  0  0  0  0
   13.2395    0.9446   -0.1244 C   0  0  2  0  0  0  0  0  0  0  0  0
   14.7226    1.1051    0.2461 C   0  0  0  0  0  0  0  0  0  0  0  0
   13.0505    0.0606   -1.3452 C   0  0  0  0  0  0  0  0  0  0  0  0
   12.4864    0.5347   -2.3704 O   0  0  0  0  0  0  0  0  0  0  0  0
   13.5010   -1.3055   -1.3959 N   0  0  0  0  0  0  0  0  0  0  0  0
   13.7563   -2.1519   -0.2259 C   0  0  2  0  0  0  0  0  0  0  0  0
   15.1834   -2.7028   -0.2706 C   0  0  0  0  0  0  0  0  0  0  0  0
   12.7636   -3.2826   -0.1757 C   0  0  0  0  0  0  0  0  0  0  0  0
   12.7355   -4.1188   -1.1187 O   0  0  0  0  0  0  0  0  0  0  0  0
   11.8571   -3.4048    0.9341 N   0  0  0  0  0  0  0  0  0  0  0  0
   11.7548   -4.6105    1.7773 C   0  0  2  0  0  0  0  0  0  0  0  0
   13.0967   -5.3310    1.9369 C   0  0  0  0  0  0  0  0  0  0  0  0
   10.6827   -5.5451    1.2745 C   0  0  0  0  0  0  0  0  0  0  0  0
    9.7289   -5.8646    2.0419 O   0  0  0  0  0  0  0  0  0  0  0  0
   10.7499   -6.1161   -0.0442 N   0  0  0  0  0  0  0  0  0  0  0  0
    9.5649   -6.6316   -0.7526 C   0  0  2  0  0  0  0  0  0  0  0  0
    9.9589   -6.9790   -2.1943 C   0  0  0  0  0  0  0  0  0  0  0  0
    8.4505   -5.6111   -0.7649 C   0  0  0  0  0  0  0  0  0  0  0  0
    8.7434   -4.3798   -0.7665 O   0  0  0  0  0  0  0  0  0  0  0  0
    7.0593   -5.9864   -0.7221 N   0  0  0  0  0  0  0  0  0  0  0  0
    6.5477   -7.3278   -1.0278 C   0  0  2  0  0  0  0  0  0  0  0  0
    5.4226   -7.2534   -2.0603 C   0  0  0  0  0  0  0  0  0  0  0  0
    6.1456   -8.0592    0.2282 C   0  0  0  0  0  0  0  0  0  0  0  0
    6.5540   -9.2377    0.3782 O   0  0  0  0  0  0  0  0  0  0  0  0
    5.4081   -7.4527    1.3026 N   0  0  0  0  0  0  0  0  0  0  0  0
    4.2016   -6.6324    1.1345 C   0  0  2  0  0  0  0  0  0  0  0  0
    3.8786   -5.9490    2.4473 C   0  0  0  0  0  0  0  0  0  0  0  0
    3.5637   -6.7088    3.6161 N   0  0  0  0  0  0  0  0  0  0  0  0
    3.8848   -4.6914    2.5116 O   0  0  0  0  0  0  0  0  0  0  0  0
    3.0291   -7.5100    0.6463 C   0  0  0  0  0  0  0  0  0  0  0  0
    1.4064   -6.6520    0.7115 S   0  0  0  0  0  0  0  0  0  0  0  0
    1.6027   -5.6283   -0.7844 C   0  0  0  0  0  0  0  0  0  0  0  0
   -3.1743   -9.8130   -0.5972 H   0  0  0  0  0  0  0  0  0  0  0  0
   -2.5667   -8.1583   -0.2110 H   0  0  0  0  0  0  0  0  0  0  0  0
   -3.7320   -8.9863    0.9012 H   0  0  0  0  0  0  0  0  0  0  0  0
   -5.9006   -6.5727   -1.1568 H   0  0  0  0  0  0  0  0  0  0  0  0
   -3.8751   -6.6254    1.1339 H   0  0  0  0  0  0  0  0  0  0  0  0
   -3.3260   -5.1603   -0.8389 H   0  0  0  0  0  0  0  0  0  0  0  0
   -4.8336   -4.2220   -0.5461 H   0  0  0  0  0  0  0  0  0  0  0  0
   -2.6786   -1.6465    0.2118 H   0  0  0  0  0  0  0  0  0  0  0  0
   -2.7756   -2.8551   -1.0877 H   0  0  0  0  0  0  0  0  0  0  0  0
   -0.9891   -4.9152   -0.7456 H   0  0  0  0  0  0  0  0  0  0  0  0
    2.9583   -3.2992   -0.2829 H   0  0  0  0  0  0  0  0  0  0  0  0
   -0.5089   -0.8855    0.6090 H   0  0  0  0  0  0  0  0  0  0  0  0
    2.5769   -0.4205   -0.7297 H   0  0  0  0  0  0  0  0  0  0  0  0
    3.1946   -1.0601    0.8083 H   0  0  0  0  0  0  0  0  0  0  0  0
    0.5445    0.7592   -1.0361 H   0  0  0  0  0  0  0  0  0  0  0  0
   -0.4456    1.5090    0.2513 H   0  0  0  0  0  0  0  0  0  0  0  0
    1.1826    3.3839    0.4267 H   0  0  0  0  0  0  0  0  0  0  0  0
   -0.0940    3.0729   -2.3255 H   0  0  0  0  0  0  0  0  0  0  0  0
   -1.6105    3.9744    0.5353 H   0  0  0  0  0  0  0  0  0  0  0  0
    0.0451    5.5744    1.5020 H   0  0  0  0  0  0  0  0  0  0  0  0
   -0.7158    6.9445    0.5958 H   0  0  0  0  0  0  0  0  0  0  0  0
   -1.6260    6.0825    1.8922 H   0  0  0  0  0  0  0  0  0  0  0  0
   -2.7155    5.7529   -1.5357 H   0  0  0  0  0  0  0  0  0  0  0  0
   -5.5423    6.8722    0.7798 H   0  0  0  0  0  0  0  0  0  0  0  0
   -4.5512    9.0389    0.0715 H   0  0  0  0  0  0  0  0  0  0  0  0
   -3.4324    8.1574    1.1565 H   0  0  0  0  0  0  0  0  0  0  0  0
   -3.1218    8.1875   -0.6220 H   0  0  0  0  0  0  0  0  0  0  0  0
   -4.7767    6.3791   -2.1085 H   0  0  0  0  0  0  0  0  0  0  0  0
   -6.7792    8.7653   -0.2073 H   0  0  0  0  0  0  0  0  0  0  0  0
   -7.8234    9.5994   -2.2824 H   0  0  0  0  0  0  0  0  0  0  0  0
   -8.9416    9.7023   -0.8747 H   0  0  0  0  0  0  0  0  0  0  0  0
   -9.1693    8.4022   -2.1095 H   0  0  0  0  0  0  0  0  0  0  0  0
   -8.1865    7.6601    1.2535 H   0  0  0  0  0  0  0  0  0  0  0  0
  -10.8636    5.6231    1.0798 H   0  0  0  0  0  0  0  0  0  0  0  0
  -10.3433    7.8111    2.0874 H   0  0  0  0  0  0  0  0  0  0  0  0
  -12.0114    7.8452    1.4456 H   0  0  0  0  0  0  0  0  0  0  0  0
  -10.6992    8.6672    0.5307 H   0  0  0  0  0  0  0  0  0  0  0  0
  -11.3184    6.9716   -1.6139 H   0  0  0  0  0  0  0  0  0  0  0  0
  -13.1972    5.7989    1.2595 H   0  0  0  0  0  0  0  0  0  0  0  0
  -15.4955    4.9387    1.2093 H   0  0  0  0  0  0  0  0  0  0  0  0
  -15.3536    4.5723   -0.5501 H   0  0  0  0  0  0  0  0  0  0  0  0
  -15.2745    6.2779    0.0324 H   0  0  0  0  0  0  0  0  0  0  0  0
  -12.5681    3.6228    1.6827 H   0  0  0  0  0  0  0  0  0  0  0  0
  -12.8152    0.7524    0.8559 H   0  0  0  0  0  0  0  0  0  0  0  0
  -13.6870    1.9227    2.8019 H   0  0  0  0  0  0  0  0  0  0  0  0
  -15.2872    2.1940    1.9929 H   0  0  0  0  0  0  0  0  0  0  0  0
  -14.7784    0.5374    2.4866 H   0  0  0  0  0  0  0  0  0  0  0  0
  -15.5890    0.9717   -0.3983 H   0  0  0  0  0  0  0  0  0  0  0  0
  -12.5425   -1.0098   -0.5174 H   0  0  0  0  0  0  0  0  0  0  0  0
  -13.8732   -2.8953    1.5241 H   0  0  0  0  0  0  0  0  0  0  0  0
  -12.1111   -2.8888    1.0933 H   0  0  0  0  0  0  0  0  0  0  0  0
  -12.8580   -1.4452    1.8522 H   0  0  0  0  0  0  0  0  0  0  0  0
  -13.0288   -2.4605   -2.2320 H   0  0  0  0  0  0  0  0  0  0  0  0
  -13.1869   -4.8641    0.2634 H   0  0  0  0  0  0  0  0  0  0  0  0
  -15.5308   -4.4998    1.0736 H   0  0  0  0  0  0  0  0  0  0  0  0
  -16.1408   -5.6262   -0.2024 H   0  0  0  0  0  0  0  0  0  0  0  0
  -15.0460   -6.2378    1.1036 H   0  0  0  0  0  0  0  0  0  0  0  0
  -14.4759   -6.6064   -1.8699 H   0  0  0  0  0  0  0  0  0  0  0  0
  -10.7203   -7.3117   -1.9780 H   0  0  0  0  0  0  0  0  0  0  0  0
   -9.9896   -5.0022   -2.1362 H   0  0  0  0  0  0  0  0  0  0  0  0
  -11.3174   -4.4239   -1.0832 H   0  0  0  0  0  0  0  0  0  0  0  0
  -11.6826   -5.0909   -2.7343 H   0  0  0  0  0  0  0  0  0  0  0  0
  -10.9115   -6.6461    0.9285 H   0  0  0  0  0  0  0  0  0  0  0  0
   -8.8412   -6.2549    2.0668 H   0  0  0  0  0  0  0  0  0  0  0  0
   -7.0240   -7.8939    2.6603 H   0  0  0  0  0  0  0  0  0  0  0  0
   -6.9734   -8.4485    0.9483 H   0  0  0  0  0  0  0  0  0  0  0  0
   -8.4532   -8.7127    1.9400 H   0  0  0  0  0  0  0  0  0  0  0  0
   -7.4046   -4.7518    0.5773 H   0  0  0  0  0  0  0  0  0  0  0  0
    4.3655    3.4477   -1.5360 H   0  0  0  0  0  0  0  0  0  0  0  0
    3.3193    3.2588    1.2033 H   0  0  0  0  0  0  0  0  0  0  0  0
    3.1980    5.5623    1.8333 H   0  0  0  0  0  0  0  0  0  0  0  0
    3.7731    6.1460    0.2245 H   0  0  0  0  0  0  0  0  0  0  0  0
    2.1703    5.3999    0.3706 H   0  0  0  0  0  0  0  0  0  0  0  0
    7.2548    3.9493    0.0142 H   0  0  0  0  0  0  0  0  0  0  0  0
    5.2423    5.5611   -1.4660 H   0  0  0  0  0  0  0  0  0  0  0  0
    8.3235    5.6403   -1.5186 H   0  0  0  0  0  0  0  0  0  0  0  0
    7.2039    6.5013   -2.6396 H   0  0  0  0  0  0  0  0  0  0  0  0
    7.2433    4.7019   -2.6189 H   0  0  0  0  0  0  0  0  0  0  0  0
    6.2770    7.4798    1.9266 H   0  0  0  0  0  0  0  0  0  0  0  0
    8.5468    5.8238    0.7743 H   0  0  0  0  0  0  0  0  0  0  0  0
    9.4427    5.7742    3.0542 H   0  0  0  0  0  0  0  0  0  0  0  0
    8.0812    6.8085    3.6543 H   0  0  0  0  0  0  0  0  0  0  0  0
    7.7499    5.1482    3.0260 H   0  0  0  0  0  0  0  0  0  0  0  0
   10.2369    8.8625   -0.1025 H   0  0  0  0  0  0  0  0  0  0  0  0
   10.8366    5.9993    0.7386 H   0  0  0  0  0  0  0  0  0  0  0  0
   12.7128    8.4562    0.9410 H   0  0  0  0  0  0  0  0  0  0  0  0
   11.8006    7.7211    2.3181 H   0  0  0  0  0  0  0  0  0  0  0  0
   13.0577    6.7709    1.4863 H   0  0  0  0  0  0  0  0  0  0  0  0
   12.3490    5.4045   -2.5093 H   0  0  0  0  0  0  0  0  0  0  0  0
   12.7977    4.7306    0.4095 H   0  0  0  0  0  0  0  0  0  0  0  0
   15.0121    5.2735   -1.6740 H   0  0  0  0  0  0  0  0  0  0  0  0
   14.5702    6.3715   -0.3245 H   0  0  0  0  0  0  0  0  0  0  0  0
   15.2433    4.7418    0.0474 H   0  0  0  0  0  0  0  0  0  0  0  0
   11.8130    2.5170    0.3134 H   0  0  0  0  0  0  0  0  0  0  0  0
   12.7186    0.4544    0.7290 H   0  0  0  0  0  0  0  0  0  0  0  0
   14.8267    1.8950    1.0220 H   0  0  0  0  0  0  0  0  0  0  0  0
   15.1363    0.1705    0.6694 H   0  0  0  0  0  0  0  0  0  0  0  0
   15.3258    1.3850   -0.6447 H   0  0  0  0  0  0  0  0  0  0  0  0
   13.5433   -1.7612   -2.3357 H   0  0  0  0  0  0  0  0  0  0  0  0
   13.6539   -1.5736    0.7096 H   0  0  0  0  0  0  0  0  0  0  0  0
   15.9178   -1.8701   -0.2593 H   0  0  0  0  0  0  0  0  0  0  0  0
   15.3709   -3.3386    0.6200 H   0  0  0  0  0  0  0  0  0  0  0  0
   15.3500   -3.3098   -1.1867 H   0  0  0  0  0  0  0  0  0  0  0  0
   11.5391   -2.5079    1.3788 H   0  0  0  0  0  0  0  0  0  0  0  0
   11.4547   -4.2846    2.7984 H   0  0  0  0  0  0  0  0  0  0  0  0
   13.4545   -5.7613    0.9753 H   0  0  0  0  0  0  0  0  0  0  0  0
   13.8575   -4.6213    2.3165 H   0  0  0  0  0  0  0  0  0  0  0  0
   12.9907   -6.1516    2.6790 H   0  0  0  0  0  0  0  0  0  0  0  0
   11.6730   -6.1620   -0.5189 H   0  0  0  0  0  0  0  0  0  0  0  0
    9.2218   -7.5539   -0.2377 H   0  0  0  0  0  0  0  0  0  0  0  0
    9.0780   -7.3038   -2.7903 H   0  0  0  0  0  0  0  0  0  0  0  0
   10.7117   -7.7953   -2.1999 H   0  0  0  0  0  0  0  0  0  0  0  0
   10.3879   -6.0857   -2.7017 H   0  0  0  0  0  0  0  0  0  0  0  0
    6.3714   -5.2240   -0.5157 H   0  0  0  0  0  0  0  0  0  0  0  0
    7.3391   -7.9337   -1.5160 H   0  0  0  0  0  0  0  0  0  0  0  0
    4.6400   -6.5389   -1.7544 H   0  0  0  0  0  0  0  0  0  0  0  0
    5.8322   -6.9061   -3.0363 H   0  0  0  0  0  0  0  0  0  0  0  0
    4.9536   -8.2516   -2.2029 H   0  0  0  0  0  0  0  0  0  0  0  0
    5.5860   -7.8581    2.2492 H   0  0  0  0  0  0  0  0  0  0  0  0
    4.3908   -5.8359    0.3951 H   0  0  0  0  0  0  0  0  0  0  0  0
    3.5057   -7.7503    3.5717 H   0  0  0  0  0  0  0  0  0  0  0  0
    3.4103   -6.2372    4.5353 H   0  0  0  0  0  0  0  0  0  0  0  0
    2.9596   -8.4153    1.2882 H   0  0  0  0  0  0  0  0  0  0  0  0
    3.2158   -7.8642   -0.3906 H   0  0  0  0  0  0  0  0  0  0  0  0
    2.6591   -5.5495   -1.1070 H   0  0  0  0  0  0  0  0  0  0  0  0
    1.0415   -6.1108   -1.6133 H   0  0  0  0  0  0  0  0  0  0  0  0
  1  2  1  0
  2  3  2  0
  2  4  1  0
  4  5  1  0
  5  6  1  0
  6  7  1  0
  7  8  1  0
  8  9  1  0
  9 10  2  0
 10 11  1  0
 11 12  2  0
 12 13  1  0
 13 14  2  0
 13 15  1  0
 15 16  1  0
 16 17  1  0
 17 18  1  0
 18 19  1  0
 19 20  1  0
 20 21  2  0
 20 22  1  0
 22 23  1  0
 22 24  1  0
 24 25  1  0
 25 26  2  0
 25 27  1  0
 27 28  1  0
 27 29  1  0
 29 30  1  0
 30 31  2  0
 30 32  1  0
 32 33  1  0
 32 34  1  0
 34 35  1  0
 35 36  2  0
 35 37  1  0
 37 38  1  0
 37 39  1  0
 39 40  1  0
 40 41  2  0
 40 42  1  0
 42 43  1  0
 42 44  1  0
 44 45  1  0
 45 46  2  0
 45 47  1  0
 47 48  1  0
 47 49  1  0
 49 50  1  0
 50 51  2  0
 50 52  1  0
 52 53  1  0
 52 54  1  0
 54 55  1  0
 55 56  2  0
 55 57  1  0
 57 58  1  0
 57 59  1  0
 59 60  1  0
 60 61  2  0
 60 62  1  0
 62 63  1  0
 62 64  1  0
 64 65  1  0
 65 66  2  0
 65 67  1  0
 67 68  1  0
 67 69  1  0
 69 70  1  0
 70 71  2  0
 18 72  1  0
 72 73  2  0
 72 74  1  0
 74 75  1  0
 75 76  1  0
 75 77  1  0
 77 78  2  0
 77 79  1  0
 79 80  1  0
 80 81  1  0
 80 82  1  0
 82 83  2  0
 82 84  1  0
 84 85  1  0
 85 86  1  0
 85 87  1  0
 87 88  2  0
 87 89  1  0
 89 90  1  0
 90 91  1  0
 90 92  1  0
 92 93  2  0
 92 94  1  0
 94 95  1  0
 95 96  1  0
 95 97  1  0
 97 98  2  0
 97 99  1  0
 99100  1  0
100101  1  0
100102  1  0
102103  2  0
102104  1  0
104105  1  0
105106  1  0
105107  1  0
107108  2  0
107109  1  0
109110  1  0
110111  1  0
110112  1  0
112113  2  0
112114  1  0
114115  1  0
115116  1  0
115117  1  0
117118  2  0
117119  1  0
119120  1  0
120121  1  0
120122  1  0
122123  2  0
122124  1  0
124125  1  0
125126  1  0
126127  1  0
126128  2  0
125129  1  0
129130  1  0
130131  1  0
 70  5  1  0
 14  9  1  0
131 11  1  0
  1132  1  0
  1133  1  0
  1134  1  0
  4135  1  0
  5136  1  1
  6137  1  0
  6138  1  0
  8139  1  0
  8140  1  0
 10141  1  0
 12142  1  0
 14143  1  0
 15144  1  0
 15145  1  0
 17146  1  0
 17147  1  0
 18148  1  1
 19149  1  0
 22150  1  1
 23151  1  0
 23152  1  0
 23153  1  0
 24154  1  0
 27155  1  1
 28156  1  0
 28157  1  0
 28158  1  0
 29159  1  0
 32160  1  1
 33161  1  0
 33162  1  0
 33163  1  0
 34164  1  0
 37165  1  1
 38166  1  0
 38167  1  0
 38168  1  0
 39169  1  0
 42170  1  1
 43171  1  0
 43172  1  0
 43173  1  0
 44174  1  0
 47175  1  1
 48176  1  0
 48177  1  0
 48178  1  0
 49179  1  0
 52180  1  6
 53181  1  0
 53182  1  0
 53183  1  0
 54184  1  0
 57185  1  1
 58186  1  0
 58187  1  0
 58188  1  0
 59189  1  0
 62190  1  6
 63191  1  0
 63192  1  0
 63193  1  0
 64194  1  0
 67195  1  1
 68196  1  0
 68197  1  0
 68198  1  0
 69199  1  0
 74200  1  0
 75201  1  1
 76202  1  0
 76203  1  0
 76204  1  0
 79205  1  0
 80206  1  6
 81207  1  0
 81208  1  0
 81209  1  0
 84210  1  0
 85211  1  6
 86212  1  0
 86213  1  0
 86214  1  0
 89215  1  0
 90216  1  1
 91217  1  0
 91218  1  0
 91219  1  0
 94220  1  0
 95221  1  1
 96222  1  0
 96223  1  0
 96224  1  0
 99225  1  0
100226  1  1
101227  1  0
101228  1  0
101229  1  0
104230  1  0
105231  1  1
106232  1  0
106233  1  0
106234  1  0
109235  1  0
110236  1  1
111237  1  0
111238  1  0
111239  1  0
114240  1  0
115241  1  1
116242  1  0
116243  1  0
116244  1  0
119245  1  0
120246  1  6
121247  1  0
121248  1  0
121249  1  0
124250  1  0
125251  1  6
127252  1  0
127253  1  0
129254  1  0
129255  1  0
131256  1  0
131257  1  0
M  END
