
     RDKit          3D

247249  0  0  0  0  0  0  0  0999 V2000
    3.8158  -10.3910   -2.7210 C   0  0  0  0  0  0  0  0  0  0  0  0
    3.3717   -9.0294   -2.2990 C   0  0  0  0  0  0  0  0  0  0  0  0
    2.7437   -8.2917   -3.1064 O   0  0  0  0  0  0  0  0  0  0  0  0
    3.6720   -8.5610   -0.9756 N   0  0  0  0  0  0  0  0  0  0  0  0
    3.3515   -7.1966   -0.5230 C   0  0  1  0  0  0  0  0  0  0  0  0
    1.8255   -7.0744   -0.2404 C   0  0  0  0  0  0  0  0  0  0  0  0
    1.1211   -5.5147   -0.9128 S   0  0  0  0  0  0  0  0  0  0  0  0
    1.5875   -4.4140    0.4795 C   0  0  0  0  0  0  0  0  0  0  0  0
    0.3676   -3.8483    1.1562 C   0  0  0  0  0  0  0  0  0  0  0  0
   -0.6365   -4.7102    1.6415 C   0  0  0  0  0  0  0  0  0  0  0  0
   -1.7533   -4.1919    2.3185 C   0  0  0  0  0  0  0  0  0  0  0  0
   -1.8558   -2.8099    2.5339 C   0  0  0  0  0  0  0  0  0  0  0  0
   -0.8483   -1.9463    2.0727 C   0  0  0  0  0  0  0  0  0  0  0  0
    0.2575   -2.4696    1.3874 C   0  0  0  0  0  0  0  0  0  0  0  0
   -0.8981   -0.4776    2.4039 C   0  0  0  0  0  0  0  0  0  0  0  0
   -1.0789    0.5230    0.8731 S   0  0  0  0  0  0  0  0  0  0  0  0
    0.0497    1.8750    1.4034 C   0  0  0  0  0  0  0  0  0  0  0  0
   -0.1990    3.1806    0.6250 C   0  0  2  0  0  0  0  0  0  0  0  0
    0.9277    4.1012    0.8265 N   0  0  0  0  0  0  0  0  0  0  0  0
    0.9786    5.3848    0.2019 C   0  0  0  0  0  0  0  0  0  0  0  0
    0.2329    6.3067    0.6368 O   0  0  0  0  0  0  0  0  0  0  0  0
    1.9989    5.6650   -0.8717 C   0  0  1  0  0  0  0  0  0  0  0  0
    1.8859    4.6341   -2.0014 C   0  0  0  0  0  0  0  0  0  0  0  0
    1.8225    7.0153   -1.4148 N   0  0  0  0  0  0  0  0  0  0  0  0
    2.5478    8.1927   -1.0116 C   0  0  0  0  0  0  0  0  0  0  0  0
    2.0786    9.3194   -1.3373 O   0  0  0  0  0  0  0  0  0  0  0  0
    3.8567    8.1680   -0.2480 C   0  0  1  0  0  0  0  0  0  0  0  0
    3.6540    7.7385    1.2178 C   0  0  0  0  0  0  0  0  0  0  0  0
    4.8516    7.3529   -0.9636 N   0  0  0  0  0  0  0  0  0  0  0  0
    5.9656    6.7013   -0.3326 C   0  0  0  0  0  0  0  0  0  0  0  0
    5.9595    5.4451   -0.2459 O   0  0  0  0  0  0  0  0  0  0  0  0
    7.1979    7.4595    0.1355 C   0  0  1  0  0  0  0  0  0  0  0  0
    7.0679    8.9748    0.0083 C   0  0  0  0  0  0  0  0  0  0  0  0
    7.4764    7.1064    1.5332 N   0  0  0  0  0  0  0  0  0  0  0  0
    8.7638    6.7265    2.0435 C   0  0  0  0  0  0  0  0  0  0  0  0
    8.8076    6.0064    3.0802 O   0  0  0  0  0  0  0  0  0  0  0  0
   10.0520    7.1798    1.3864 C   0  0  1  0  0  0  0  0  0  0  0  0
   11.1792    7.3800    2.4041 C   0  0  0  0  0  0  0  0  0  0  0  0
   10.4723    6.2551    0.3262 N   0  0  0  0  0  0  0  0  0  0  0  0
   10.8943    4.9014    0.5671 C   0  0  0  0  0  0  0  0  0  0  0  0
   10.2887    4.2071    1.4319 O   0  0  0  0  0  0  0  0  0  0  0  0
   12.1243    4.3182   -0.0911 C   0  0  1  0  0  0  0  0  0  0  0  0
   12.5611    5.0883   -1.3420 C   0  0  0  0  0  0  0  0  0  0  0  0
   13.2223    4.2931    0.8802 N   0  0  0  0  0  0  0  0  0  0  0  0
   13.9169    3.1183    1.3487 C   0  0  0  0  0  0  0  0  0  0  0  0
   14.5880    3.2121    2.4109 O   0  0  0  0  0  0  0  0  0  0  0  0
   13.9353    1.8141    0.5672 C   0  0  1  0  0  0  0  0  0  0  0  0
   14.6951    2.0051   -0.7535 C   0  0  0  0  0  0  0  0  0  0  0  0
   14.5661    0.7356    1.3429 N   0  0  0  0  0  0  0  0  0  0  0  0
   14.2851   -0.6692    1.1591 C   0  0  0  0  0  0  0  0  0  0  0  0
   14.7179   -1.4873    2.0179 O   0  0  0  0  0  0  0  0  0  0  0  0
   13.5009   -1.2029   -0.0222 C   0  0  1  0  0  0  0  0  0  0  0  0
   14.3230   -2.2349   -0.8005 C   0  0  0  0  0  0  0  0  0  0  0  0
   12.2129   -1.7518    0.3999 N   0  0  0  0  0  0  0  0  0  0  0  0
   12.0840   -2.8674    1.2921 C   0  0  0  0  0  0  0  0  0  0  0  0
   11.9229   -2.6532    2.5214 O   0  0  0  0  0  0  0  0  0  0  0  0
   11.9570   -4.2541    0.7251 C   0  0  1  0  0  0  0  0  0  0  0  0
   12.7508   -5.2713    1.5508 C   0  0  0  0  0  0  0  0  0  0  0  0
   10.5489   -4.6380    0.6556 N   0  0  0  0  0  0  0  0  0  0  0  0
    9.7453   -4.2108   -0.4495 C   0  0  0  0  0  0  0  0  0  0  0  0
    9.1319   -3.1080   -0.3768 O   0  0  0  0  0  0  0  0  0  0  0  0
    9.6187   -5.0440   -1.7099 C   0  0  1  0  0  0  0  0  0  0  0  0
   10.5887   -6.2306   -1.7213 C   0  0  0  0  0  0  0  0  0  0  0  0
    8.2516   -5.5437   -1.9540 N   0  0  0  0  0  0  0  0  0  0  0  0
    7.1845   -5.5341   -1.0004 C   0  0  0  0  0  0  0  0  0  0  0  0
    6.7545   -4.4266   -0.5608 O   0  0  0  0  0  0  0  0  0  0  0  0
    6.4228   -6.7994   -0.7014 C   0  0  1  0  0  0  0  0  0  0  0  0
    7.3693   -7.9909   -0.5478 C   0  0  0  0  0  0  0  0  0  0  0  0
    5.6458   -6.6396    0.5355 N   0  0  0  0  0  0  0  0  0  0  0  0
    4.2273   -6.8616    0.6752 C   0  0  0  0  0  0  0  0  0  0  0  0
    3.7323   -6.8442    1.8336 O   0  0  0  0  0  0  0  0  0  0  0  0
   -1.5020    3.8048    1.0673 C   0  0  0  0  0  0  0  0  0  0  0  0
   -1.5557    4.4247    2.1645 O   0  0  0  0  0  0  0  0  0  0  0  0
   -2.7135    3.5168    0.3621 N   0  0  0  0  0  0  0  0  0  0  0  0
   -3.2470    4.3445   -0.7334 C   0  0  2  0  0  0  0  0  0  0  0  0
   -2.1503    4.7812   -1.7112 C   0  0  0  0  0  0  0  0  0  0  0  0
   -3.9815    5.5578   -0.1986 C   0  0  0  0  0  0  0  0  0  0  0  0
   -3.7247    5.9799    0.9604 O   0  0  0  0  0  0  0  0  0  0  0  0
   -4.9428    6.2722   -0.9911 N   0  0  0  0  0  0  0  0  0  0  0  0
   -5.6870    5.6655   -2.1004 C   0  0  2  0  0  0  0  0  0  0  0  0
   -6.4197    6.7225   -2.9307 C   0  0  0  0  0  0  0  0  0  0  0  0
   -6.6308    4.5966   -1.5939 C   0  0  0  0  0  0  0  0  0  0  0  0
   -6.6822    3.4985   -2.2095 O   0  0  0  0  0  0  0  0  0  0  0  0
   -7.3760    4.7435   -0.3715 N   0  0  0  0  0  0  0  0  0  0  0  0
   -8.1605    5.9332   -0.0401 C   0  0  2  0  0  0  0  0  0  0  0  0
   -8.4684    5.9646    1.4595 C   0  0  0  0  0  0  0  0  0  0  0  0
   -9.4341    5.9348   -0.8367 C   0  0  0  0  0  0  0  0  0  0  0  0
   -9.6362    6.8736   -1.6564 O   0  0  0  0  0  0  0  0  0  0  0  0
  -10.3636    4.8406   -0.7108 N   0  0  0  0  0  0  0  0  0  0  0  0
  -11.7761    4.7928   -1.1279 C   0  0  2  0  0  0  0  0  0  0  0  0
  -12.3254    6.1127   -1.6841 C   0  0  0  0  0  0  0  0  0  0  0  0
  -12.5979    4.3625    0.0550 C   0  0  0  0  0  0  0  0  0  0  0  0
  -12.6217    5.0762    1.0892 O   0  0  0  0  0  0  0  0  0  0  0  0
  -13.3373    3.1370    0.0123 N   0  0  0  0  0  0  0  0  0  0  0  0
  -13.0313    1.9528    0.8253 C   0  0  2  0  0  0  0  0  0  0  0  0
  -12.4175    2.3180    2.1843 C   0  0  0  0  0  0  0  0  0  0  0  0
  -12.1094    1.0233    0.0751 C   0  0  0  0  0  0  0  0  0  0  0  0
  -10.9654    1.4435   -0.2525 O   0  0  0  0  0  0  0  0  0  0  0  0
  -12.4425   -0.3540   -0.2144 N   0  0  0  0  0  0  0  0  0  0  0  0
  -13.7569   -0.8926   -0.5958 C   0  0  2  0  0  0  0  0  0  0  0  0
  -14.4979    0.0262   -1.5790 C   0  0  0  0  0  0  0  0  0  0  0  0
  -14.5840   -1.2507    0.6173 C   0  0  0  0  0  0  0  0  0  0  0  0
  -15.4392   -0.4295    1.0575 O   0  0  0  0  0  0  0  0  0  0  0  0
  -14.4318   -2.5052    1.3116 N   0  0  0  0  0  0  0  0  0  0  0  0
  -13.5202   -3.5929    0.9224 C   0  0  2  0  0  0  0  0  0  0  0  0
  -14.2639   -4.5795    0.0193 C   0  0  0  0  0  0  0  0  0  0  0  0
  -12.9974   -4.2888    2.1582 C   0  0  0  0  0  0  0  0  0  0  0  0
  -13.7527   -4.4514    3.1517 O   0  0  0  0  0  0  0  0  0  0  0  0
  -11.6376   -4.7332    2.2506 N   0  0  0  0  0  0  0  0  0  0  0  0
  -11.0238   -5.6349    1.2665 C   0  0  2  0  0  0  0  0  0  0  0  0
  -11.7086   -7.0058    1.3133 C   0  0  0  0  0  0  0  0  0  0  0  0
   -9.5440   -5.7978    1.5650 C   0  0  0  0  0  0  0  0  0  0  0  0
   -9.1980   -6.2347    2.6935 O   0  0  0  0  0  0  0  0  0  0  0  0
   -8.5187   -5.3726    0.6543 N   0  0  0  0  0  0  0  0  0  0  0  0
   -8.5471   -5.6347   -0.7941 C   0  0  2  0  0  0  0  0  0  0  0  0
   -8.4385   -7.1408   -1.0794 C   0  0  0  0  0  0  0  0  0  0  0  0
   -7.4684   -4.8527   -1.5297 C   0  0  0  0  0  0  0  0  0  0  0  0
   -7.7490   -4.4049   -2.6752 O   0  0  0  0  0  0  0  0  0  0  0  0
   -6.1969   -4.5126   -0.9534 N   0  0  0  0  0  0  0  0  0  0  0  0
   -5.2624   -5.5081   -0.4204 C   0  0  1  0  0  0  0  0  0  0  0  0
   -4.3256   -5.9415   -1.5228 C   0  0  0  0  0  0  0  0  0  0  0  0
   -4.8204   -6.7523   -2.5911 N   0  0  0  0  0  0  0  0  0  0  0  0
   -3.1194   -5.5760   -1.5363 O   0  0  0  0  0  0  0  0  0  0  0  0
   -4.5184   -4.9322    0.8004 C   0  0  0  0  0  0  0  0  0  0  0  0
   -3.4854   -6.2207    1.5879 S   0  0  0  0  0  0  0  0  0  0  0  0
   -2.7870   -5.1330    2.8831 C   0  0  0  0  0  0  0  0  0  0  0  0
    3.3903  -10.6457   -3.7190 H   0  0  0  0  0  0  0  0  0  0  0  0
    4.9241  -10.4179   -2.7727 H   0  0  0  0  0  0  0  0  0  0  0  0
    3.4645  -11.1419   -1.9837 H   0  0  0  0  0  0  0  0  0  0  0  0
    4.2128   -9.1964   -0.3440 H   0  0  0  0  0  0  0  0  0  0  0  0
    3.6050   -6.4774   -1.3339 H   0  0  0  0  0  0  0  0  0  0  0  0
    1.5750   -7.1981    0.8337 H   0  0  0  0  0  0  0  0  0  0  0  0
    1.2870   -7.8985   -0.7603 H   0  0  0  0  0  0  0  0  0  0  0  0
    2.1877   -4.9400    1.2461 H   0  0  0  0  0  0  0  0  0  0  0  0
    2.2235   -3.5995    0.0718 H   0  0  0  0  0  0  0  0  0  0  0  0
   -0.5563   -5.7783    1.4712 H   0  0  0  0  0  0  0  0  0  0  0  0
   -2.7031   -2.4138    3.0763 H   0  0  0  0  0  0  0  0  0  0  0  0
    1.0549   -1.8044    1.0783 H   0  0  0  0  0  0  0  0  0  0  0  0
    0.0264   -0.2150    2.9599 H   0  0  0  0  0  0  0  0  0  0  0  0
   -1.7838   -0.2502    3.0412 H   0  0  0  0  0  0  0  0  0  0  0  0
    1.0855    1.5126    1.2099 H   0  0  0  0  0  0  0  0  0  0  0  0
   -0.0503    2.0634    2.5024 H   0  0  0  0  0  0  0  0  0  0  0  0
   -0.2565    2.9294   -0.4586 H   0  0  0  0  0  0  0  0  0  0  0  0
    1.8314    3.7288    1.2033 H   0  0  0  0  0  0  0  0  0  0  0  0
    3.0091    5.5534   -0.4391 H   0  0  0  0  0  0  0  0  0  0  0  0
    2.0848    3.6158   -1.6052 H   0  0  0  0  0  0  0  0  0  0  0  0
    0.8698    4.6567   -2.4528 H   0  0  0  0  0  0  0  0  0  0  0  0
    2.6390    4.8561   -2.7885 H   0  0  0  0  0  0  0  0  0  0  0  0
    0.9843    7.1763   -2.0215 H   0  0  0  0  0  0  0  0  0  0  0  0
    4.2304    9.2121   -0.2163 H   0  0  0  0  0  0  0  0  0  0  0  0
    4.4710    8.1604    1.8442 H   0  0  0  0  0  0  0  0  0  0  0  0
    2.6914    8.1338    1.6178 H   0  0  0  0  0  0  0  0  0  0  0  0
    3.6753    6.6374    1.3539 H   0  0  0  0  0  0  0  0  0  0  0  0
    4.8601    7.3987   -2.0091 H   0  0  0  0  0  0  0  0  0  0  0  0
    8.0421    7.1334   -0.5157 H   0  0  0  0  0  0  0  0  0  0  0  0
    6.3274    9.3653    0.7391 H   0  0  0  0  0  0  0  0  0  0  0  0
    8.0423    9.4592    0.2291 H   0  0  0  0  0  0  0  0  0  0  0  0
    6.7693    9.2626   -1.0226 H   0  0  0  0  0  0  0  0  0  0  0  0
    6.6627    7.0508    2.1869 H   0  0  0  0  0  0  0  0  0  0  0  0
    9.8729    8.1827    0.9318 H   0  0  0  0  0  0  0  0  0  0  0  0
   12.0855    7.7563    1.8858 H   0  0  0  0  0  0  0  0  0  0  0  0
   11.4364    6.4244    2.9125 H   0  0  0  0  0  0  0  0  0  0  0  0
   10.8765    8.1257    3.1696 H   0  0  0  0  0  0  0  0  0  0  0  0
   10.6190    6.6742   -0.6150 H   0  0  0  0  0  0  0  0  0  0  0  0
   11.8596    3.2941   -0.4118 H   0  0  0  0  0  0  0  0  0  0  0  0
   13.4386    4.6047   -1.8054 H   0  0  0  0  0  0  0  0  0  0  0  0
   11.7394    5.1051   -2.0893 H   0  0  0  0  0  0  0  0  0  0  0  0
   12.8517    6.1238   -1.0819 H   0  0  0  0  0  0  0  0  0  0  0  0
   13.4793    5.2049    1.3243 H   0  0  0  0  0  0  0  0  0  0  0  0
   12.8848    1.5229    0.3664 H   0  0  0  0  0  0  0  0  0  0  0  0
   15.0982    1.0402   -1.1308 H   0  0  0  0  0  0  0  0  0  0  0  0
   14.0143    2.4063   -1.5271 H   0  0  0  0  0  0  0  0  0  0  0  0
   15.5531    2.6993   -0.6221 H   0  0  0  0  0  0  0  0  0  0  0  0
   15.3710    0.9658    1.9635 H   0  0  0  0  0  0  0  0  0  0  0  0
   13.2961   -0.3892   -0.7449 H   0  0  0  0  0  0  0  0  0  0  0  0
   14.5933   -3.0980   -0.1542 H   0  0  0  0  0  0  0  0  0  0  0  0
   13.7408   -2.6029   -1.6678 H   0  0  0  0  0  0  0  0  0  0  0  0
   15.2584   -1.7691   -1.1791 H   0  0  0  0  0  0  0  0  0  0  0  0
   11.3371   -1.3373    0.0056 H   0  0  0  0  0  0  0  0  0  0  0  0
   12.3873   -4.2552   -0.2994 H   0  0  0  0  0  0  0  0  0  0  0  0
   13.8245   -4.9825    1.5894 H   0  0  0  0  0  0  0  0  0  0  0  0
   12.6741   -6.2780    1.0862 H   0  0  0  0  0  0  0  0  0  0  0  0
   12.3606   -5.3341    2.5913 H   0  0  0  0  0  0  0  0  0  0  0  0
   10.0526   -4.8267    1.5579 H   0  0  0  0  0  0  0  0  0  0  0  0
    9.8939   -4.3847   -2.5628 H   0  0  0  0  0  0  0  0  0  0  0  0
   10.4517   -6.8261   -2.6475 H   0  0  0  0  0  0  0  0  0  0  0  0
   10.4050   -6.8846   -0.8449 H   0  0  0  0  0  0  0  0  0  0  0  0
   11.6395   -5.8740   -1.7086 H   0  0  0  0  0  0  0  0  0  0  0  0
    8.0999   -6.1032   -2.8247 H   0  0  0  0  0  0  0  0  0  0  0  0
    5.7678   -7.0051   -1.5676 H   0  0  0  0  0  0  0  0  0  0  0  0
    7.8860   -8.1922   -1.5050 H   0  0  0  0  0  0  0  0  0  0  0  0
    8.1252   -7.7884    0.2378 H   0  0  0  0  0  0  0  0  0  0  0  0
    6.7962   -8.8970   -0.2727 H   0  0  0  0  0  0  0  0  0  0  0  0
    6.1759   -6.4187    1.4102 H   0  0  0  0  0  0  0  0  0  0  0  0
   -3.3937    2.8881    0.8411 H   0  0  0  0  0  0  0  0  0  0  0  0
   -3.9647    3.7127   -1.2915 H   0  0  0  0  0  0  0  0  0  0  0  0
   -1.4206    5.4417   -1.2071 H   0  0  0  0  0  0  0  0  0  0  0  0
   -2.5902    5.3385   -2.5635 H   0  0  0  0  0  0  0  0  0  0  0  0
   -1.6306    3.8931   -2.1124 H   0  0  0  0  0  0  0  0  0  0  0  0
   -5.1907    7.2454   -0.6897 H   0  0  0  0  0  0  0  0  0  0  0  0
   -4.9615    5.1895   -2.7980 H   0  0  0  0  0  0  0  0  0  0  0  0
   -7.0563    7.3793   -2.3077 H   0  0  0  0  0  0  0  0  0  0  0  0
   -7.0558    6.2338   -3.7065 H   0  0  0  0  0  0  0  0  0  0  0  0
   -5.6740    7.3652   -3.4469 H   0  0  0  0  0  0  0  0  0  0  0  0
   -7.6214    3.8550    0.1161 H   0  0  0  0  0  0  0  0  0  0  0  0
   -7.5726    6.8500   -0.2533 H   0  0  0  0  0  0  0  0  0  0  0  0
   -9.0604    6.8721    1.7081 H   0  0  0  0  0  0  0  0  0  0  0  0
   -7.5196    6.0003    2.0429 H   0  0  0  0  0  0  0  0  0  0  0  0
   -9.0417    5.0606    1.7641 H   0  0  0  0  0  0  0  0  0  0  0  0
  -10.0096    3.9822   -0.2404 H   0  0  0  0  0  0  0  0  0  0  0  0
  -11.8790    4.0312   -1.9305 H   0  0  0  0  0  0  0  0  0  0  0  0
  -12.1656    6.9501   -0.9689 H   0  0  0  0  0  0  0  0  0  0  0  0
  -11.8402    6.3492   -2.6542 H   0  0  0  0  0  0  0  0  0  0  0  0
  -13.4175    6.0165   -1.8784 H   0  0  0  0  0  0  0  0  0  0  0  0
  -14.0753    3.0533   -0.7297 H   0  0  0  0  0  0  0  0  0  0  0  0
  -13.9807    1.4453    1.0531 H   0  0  0  0  0  0  0  0  0  0  0  0
  -11.4502    2.8599    2.0741 H   0  0  0  0  0  0  0  0  0  0  0  0
  -13.1180    2.9525    2.7643 H   0  0  0  0  0  0  0  0  0  0  0  0
  -12.2306    1.3894    2.7714 H   0  0  0  0  0  0  0  0  0  0  0  0
  -11.6280   -0.9869   -0.3768 H   0  0  0  0  0  0  0  0  0  0  0  0
  -13.5857   -1.8268   -1.1785 H   0  0  0  0  0  0  0  0  0  0  0  0
  -14.9069    0.9204   -1.0827 H   0  0  0  0  0  0  0  0  0  0  0  0
  -13.8186    0.3511   -2.3977 H   0  0  0  0  0  0  0  0  0  0  0  0
  -15.3505   -0.5206   -2.0347 H   0  0  0  0  0  0  0  0  0  0  0  0
  -15.1373   -2.6997    2.0556 H   0  0  0  0  0  0  0  0  0  0  0  0
  -12.6457   -3.1827    0.3757 H   0  0  0  0  0  0  0  0  0  0  0  0
  -15.0161   -5.1556    0.6054 H   0  0  0  0  0  0  0  0  0  0  0  0
  -14.7945   -4.0329   -0.7919 H   0  0  0  0  0  0  0  0  0  0  0  0
  -13.5479   -5.2852   -0.4536 H   0  0  0  0  0  0  0  0  0  0  0  0
  -11.1439   -4.5551    3.1596 H   0  0  0  0  0  0  0  0  0  0  0  0
  -11.1610   -5.2045    0.2569 H   0  0  0  0  0  0  0  0  0  0  0  0
  -11.5679   -7.4885    2.3051 H   0  0  0  0  0  0  0  0  0  0  0  0
  -11.2932   -7.6709    0.5290 H   0  0  0  0  0  0  0  0  0  0  0  0
  -12.7940   -6.9052    1.1230 H   0  0  0  0  0  0  0  0  0  0  0  0
   -7.6246   -5.0627    1.0920 H   0  0  0  0  0  0  0  0  0  0  0  0
   -9.5225   -5.2967   -1.2030 H   0  0  0  0  0  0  0  0  0  0  0  0
   -8.2868   -7.3243   -2.1660 H   0  0  0  0  0  0  0  0  0  0  0  0
   -9.3771   -7.6538   -0.7825 H   0  0  0  0  0  0  0  0  0  0  0  0
   -7.6075   -7.6092   -0.5166 H   0  0  0  0  0  0  0  0  0  0  0  0
   -5.7813   -3.5989   -1.2492 H   0  0  0  0  0  0  0  0  0  0  0  0
   -5.8214   -6.3992   -0.0678 H   0  0  0  0  0  0  0  0  0  0  0  0
   -4.1896   -7.0336   -3.3741 H   0  0  0  0  0  0  0  0  0  0  0  0
   -5.8039   -7.0900   -2.5889 H   0  0  0  0  0  0  0  0  0  0  0  0
   -5.2598   -4.5772    1.5466 H   0  0  0  0  0  0  0  0  0  0  0  0
   -3.8933   -4.0678    0.4933 H   0  0  0  0  0  0  0  0  0  0  0  0
   -2.2884   -5.7816    3.6348 H   0  0  0  0  0  0  0  0  0  0  0  0
   -3.6015   -4.5918    3.3946 H   0  0  0  0  0  0  0  0  0  0  0  0
  1  2  1  0
  2  3  2  0
  2  4  1  0
  4  5  1  0
  5  6  1  0
  6  7  1  0
  7  8  1  0
  8  9  1  0
  9 10  2  0
 10 11  1  0
 11 12  2  0
 12 13  1  0
 13 14  2  0
 13 15  1  0
 15 16  1  0
 16 17  1  0
 17 18  1  0
 18 19  1  0
 19 20  1  0
 20 21  2  0
 20 22  1  0
 22 23  1  0
 22 24  1  0
 24 25  1  0
 25 26  2  0
 25 27  1  0
 27 28  1  0
 27 29  1  0
 29 30  1  0
 30 31  2  0
 30 32  1  0
 32 33  1  0
 32 34  1  0
 34 35  1  0
 35 36  2  0
 35 37  1  0
 37 38  1  0
 37 39  1  0
 39 40  1  0
 40 41  2  0
 40 42  1  0
 42 43  1  0
 42 44  1  0
 44 45  1  0
 45 46  2  0
 45 47  1  0
 47 48  1  0
 47 49  1  0
 49 50  1  0
 50 51  2  0
 50 52  1  0
 52 53  1  0
 52 54  1  0
 54 55  1  0
 55 56  2  0
 55 57  1  0
 57 58  1  0
 57 59  1  0
 59 60  1  0
 60 61  2  0
 60 62  1  0
 62 63  1  0
 62 64  1  0
 64 65  1  0
 65 66  2  0
 65 67  1  0
 67 68  1  0
 67 69  1  0
 69 70  1  0
 70 71  2  0
 18 72  1  0
 72 73  2  0
 72 74  1  0
 74 75  1  0
 75 76  1  0
 75 77  1  0
 77 78  2  0
 77 79  1  0
 79 80  1  0
 80 81  1  0
 80 82  1  0
 82 83  2  0
 82 84  1  0
 84 85  1  0
 85 86  1  0
 85 87  1  0
 87 88  2  0
 87 89  1  0
 89 90  1  0
 90 91  1  0
 90 92  1  0
 92 93  2  0
 92 94  1  0
 94 95  1  0
 95 96  1  0
 95 97  1  0
 97 98  2  0
 97 99  1  0
 99100  1  0
100101  1  0
100102  1  0
102103  2  0
102104  1  0
104105  1  0
105106  1  0
105107  1  0
107108  2  0
107109  1  0
109110  1  0
110111  1  0
110112  1  0
112113  2  0
112114  1  0
114115  1  0
115116  1  0
115117  1  0
117118  2  0
117119  1  0
119120  1  0
120121  1  0
121122  1  0
121123  2  0
120124  1  0
124125  1  0
125126  1  0
 70  5  1  0
 14  9  1  0
126 11  1  0
  1127  1  0
  1128  1  0
  1129  1  0
  4130  1  0
  5131  1  6
  6132  1  0
  6133  1  0
  8134  1  0
  8135  1  0
 10136  1  0
 12137  1  0
 14138  1  0
 15139  1  0
 15140  1  0
 17141  1  0
 17142  1  0
 18143  1  6
 19144  1  0
 22145  1  1
 23146  1  0
 23147  1  0
 23148  1  0
 24149  1  0
 27150  1  1
 28151  1  0
 28152  1  0
 28153  1  0
 29154  1  0
 32155  1  6
 33156  1  0
 33157  1  0
 33158  1  0
 34159  1  0
 37160  1  6
 38161  1  0
 38162  1  0
 38163  1  0
 39164  1  0
 42165  1  6
 43166  1  0
 43167  1  0
 43168  1  0
 44169  1  0
 47170  1  6
 48171  1  0
 48172  1  0
 48173  1  0
 49174  1  0
 52175  1  6
 53176  1  0
 53177  1  0
 53178  1  0
 54179  1  0
 57180  1  6
 58181  1  0
 58182  1  0
 58183  1  0
 59184  1  0
 62185  1  6
 63186  1  0
 63187  1  0
 63188  1  0
 64189  1  0
 67190  1  6
 68191  1  0
 68192  1  0
 68193  1  0
 69194  1  0
 74195  1  0
 75196  1  6
 76197  1  0
 76198  1  0
 76199  1  0
 79200  1  0
 80201  1  6
 81202  1  0
 81203  1  0
 81204  1  0
 84205  1  0
 85206  1  6
 86207  1  0
 86208  1  0
 86209  1  0
 89210  1  0
 90211  1  6
 91212  1  0
 91213  1  0
 91214  1  0
 94215  1  0
 95216  1  1
 96217  1  0
 96218  1  0
 96219  1  0
 99220  1  0
100221  1  6
101222  1  0
101223  1  0
101224  1  0
104225  1  0
105226  1  6
106227  1  0
106228  1  0
106229  1  0
109230  1  0
110231  1  6
111232  1  0
111233  1  0
111234  1  0
114235  1  0
115236  1  6
116237  1  0
116238  1  0
116239  1  0
119240  1  0
120241  1  1
122242  1  0
122243  1  0
124244  1  0
124245  1  0
126246  1  0
126247  1  0
M  END
