
     RDKit          3D

107109  0  0  0  0  0  0  0  0999 V2000
    7.4797    2.7984    1.4409 C   0  0  0  0  0  0  0  0  0  0  0  0
    6.3202    2.0894    0.8154 C   0  0  0  0  0  0  0  0  0  0  0  0
    5.4228    1.6191    1.5635 O   0  0  0  0  0  0  0  0  0  0  0  0
    6.2378    1.9481   -0.6143 N   0  0  0  0  0  0  0  0  0  0  0  0
    5.1071    1.2980   -1.2884 C   0  0  1  0  0  0  0  0  0  0  0  0
    4.3272    2.3269   -2.1206 C   0  0  0  0  0  0  0  0  0  0  0  0
    3.8355    3.7818   -1.1192 S   0  0  0  0  0  0  0  0  0  0  0  0
    2.0321    3.7576   -1.4375 C   0  0  0  0  0  0  0  0  0  0  0  0
    1.2974    3.3657   -0.1863 C   0  0  0  0  0  0  0  0  0  0  0  0
    0.3765    4.2444    0.4133 C   0  0  0  0  0  0  0  0  0  0  0  0
   -0.3131    3.8629    1.5781 C   0  0  0  0  0  0  0  0  0  0  0  0
   -0.0321    2.6267    2.1714 C   0  0  0  0  0  0  0  0  0  0  0  0
    0.8812    1.7438    1.5819 C   0  0  0  0  0  0  0  0  0  0  0  0
    1.5261    2.1099    0.3919 C   0  0  0  0  0  0  0  0  0  0  0  0
    1.1103    0.3931    2.1907 C   0  0  0  0  0  0  0  0  0  0  0  0
   -0.4325   -0.5966    2.1520 S   0  0  0  0  0  0  0  0  0  0  0  0
   -0.5145   -0.8389    0.3352 C   0  0  0  0  0  0  0  0  0  0  0  0
    0.4281   -1.9584   -0.1436 C   0  0  1  0  0  0  0  0  0  0  0  0
    0.3525   -3.1508    0.7119 N   0  0  0  0  0  0  0  0  0  0  0  0
    1.4519   -4.0429    0.9667 C   0  0  0  0  0  0  0  0  0  0  0  0
    1.1970   -5.2490    1.2392 O   0  0  0  0  0  0  0  0  0  0  0  0
    2.9003   -3.5898    0.9091 C   0  0  1  0  0  0  0  0  0  0  0  0
    3.7500   -4.3521    1.9392 C   0  0  0  0  0  0  0  0  0  0  0  0
    3.4324   -3.8031   -0.4417 N   0  0  0  0  0  0  0  0  0  0  0  0
    4.6981   -3.2777   -0.8730 C   0  0  0  0  0  0  0  0  0  0  0  0
    5.5045   -4.0440   -1.4671 O   0  0  0  0  0  0  0  0  0  0  0  0
    5.0635   -1.8189   -0.6764 C   0  0  1  0  0  0  0  0  0  0  0  0
    6.3066   -1.7125    0.2208 C   0  0  0  0  0  0  0  0  0  0  0  0
    5.3293   -1.1969   -1.9838 N   0  0  0  0  0  0  0  0  0  0  0  0
    5.6298    0.1982   -2.1896 C   0  0  0  0  0  0  0  0  0  0  0  0
    6.3526    0.5144   -3.1721 O   0  0  0  0  0  0  0  0  0  0  0  0
    0.1833   -2.3131   -1.5946 C   0  0  0  0  0  0  0  0  0  0  0  0
    1.1431   -2.1776   -2.4022 O   0  0  0  0  0  0  0  0  0  0  0  0
   -1.0957   -2.7259   -2.1228 N   0  0  0  0  0  0  0  0  0  0  0  0
   -2.1189   -3.4970   -1.3983 C   0  0  2  0  0  0  0  0  0  0  0  0
   -1.7486   -4.9806   -1.4055 C   0  0  0  0  0  0  0  0  0  0  0  0
   -3.4803   -3.3102   -2.0563 C   0  0  0  0  0  0  0  0  0  0  0  0
   -3.6091   -3.6182   -3.2759 O   0  0  0  0  0  0  0  0  0  0  0  0
   -4.6412   -2.8338   -1.3489 N   0  0  0  0  0  0  0  0  0  0  0  0
   -4.6396   -2.2960    0.0202 C   0  0  2  0  0  0  0  0  0  0  0  0
   -4.7157   -3.4277    1.0488 C   0  0  0  0  0  0  0  0  0  0  0  0
   -5.8003   -1.3546    0.2081 C   0  0  0  0  0  0  0  0  0  0  0  0
   -6.9777   -1.7727    0.0240 O   0  0  0  0  0  0  0  0  0  0  0  0
   -5.5659   -0.0021    0.6283 N   0  0  0  0  0  0  0  0  0  0  0  0
   -6.6586    0.9172    0.9584 C   0  0  2  0  0  0  0  0  0  0  0  0
   -7.4370    1.3511   -0.2873 C   0  0  0  0  0  0  0  0  0  0  0  0
   -6.1576    2.1113    1.7472 C   0  0  0  0  0  0  0  0  0  0  0  0
   -6.4016    2.1468    2.9842 O   0  0  0  0  0  0  0  0  0  0  0  0
   -5.4792    3.2323    1.1539 N   0  0  0  0  0  0  0  0  0  0  0  0
   -4.5476    3.1445    0.0260 C   0  0  1  0  0  0  0  0  0  0  0  0
   -4.9147    4.1319   -1.0627 C   0  0  0  0  0  0  0  0  0  0  0  0
   -4.4531    3.9323   -2.4008 N   0  0  0  0  0  0  0  0  0  0  0  0
   -5.6102    5.1460   -0.8014 O   0  0  0  0  0  0  0  0  0  0  0  0
   -3.1040    3.3310    0.5237 C   0  0  0  0  0  0  0  0  0  0  0  0
   -2.7425    5.0756    0.9826 S   0  0  0  0  0  0  0  0  0  0  0  0
   -1.3814    4.7476    2.1652 C   0  0  0  0  0  0  0  0  0  0  0  0
    7.1172    3.6620    2.0437 H   0  0  0  0  0  0  0  0  0  0  0  0
    8.0331    2.0997    2.1066 H   0  0  0  0  0  0  0  0  0  0  0  0
    8.1901    3.1698    0.6752 H   0  0  0  0  0  0  0  0  0  0  0  0
    6.9994    2.3597   -1.1988 H   0  0  0  0  0  0  0  0  0  0  0  0
    4.4052    0.8709   -0.5447 H   0  0  0  0  0  0  0  0  0  0  0  0
    3.4535    1.8158   -2.5694 H   0  0  0  0  0  0  0  0  0  0  0  0
    4.9566    2.7119   -2.9488 H   0  0  0  0  0  0  0  0  0  0  0  0
    1.7401    4.7814   -1.7577 H   0  0  0  0  0  0  0  0  0  0  0  0
    1.7445    3.0747   -2.2590 H   0  0  0  0  0  0  0  0  0  0  0  0
    0.1842    5.2127   -0.0317 H   0  0  0  0  0  0  0  0  0  0  0  0
   -0.5545    2.3312    3.0750 H   0  0  0  0  0  0  0  0  0  0  0  0
    2.2026    1.4148   -0.0934 H   0  0  0  0  0  0  0  0  0  0  0  0
    1.4207    0.5200    3.2484 H   0  0  0  0  0  0  0  0  0  0  0  0
    1.9244   -0.1540    1.6752 H   0  0  0  0  0  0  0  0  0  0  0  0
   -0.2747    0.1087   -0.1950 H   0  0  0  0  0  0  0  0  0  0  0  0
   -1.5640   -1.0680    0.0783 H   0  0  0  0  0  0  0  0  0  0  0  0
    1.4503   -1.5300   -0.0861 H   0  0  0  0  0  0  0  0  0  0  0  0
   -0.5726   -3.4432    1.0984 H   0  0  0  0  0  0  0  0  0  0  0  0
    2.9510   -2.5139    1.1755 H   0  0  0  0  0  0  0  0  0  0  0  0
    3.7952   -5.4397    1.6917 H   0  0  0  0  0  0  0  0  0  0  0  0
    4.7830   -3.9397    1.9533 H   0  0  0  0  0  0  0  0  0  0  0  0
    3.3148   -4.2348    2.9611 H   0  0  0  0  0  0  0  0  0  0  0  0
    3.0653   -4.6239   -0.9783 H   0  0  0  0  0  0  0  0  0  0  0  0
    4.2110   -1.2985   -0.1869 H   0  0  0  0  0  0  0  0  0  0  0  0
    7.1821   -2.2110   -0.2546 H   0  0  0  0  0  0  0  0  0  0  0  0
    6.1150   -2.1998    1.1943 H   0  0  0  0  0  0  0  0  0  0  0  0
    6.5646   -0.6552    0.4077 H   0  0  0  0  0  0  0  0  0  0  0  0
    5.4686   -1.8156   -2.8092 H   0  0  0  0  0  0  0  0  0  0  0  0
   -1.1602   -2.7344   -3.1684 H   0  0  0  0  0  0  0  0  0  0  0  0
   -2.1610   -3.1706   -0.3519 H   0  0  0  0  0  0  0  0  0  0  0  0
   -0.7572   -5.1149   -0.9219 H   0  0  0  0  0  0  0  0  0  0  0  0
   -2.4974   -5.5678   -0.8269 H   0  0  0  0  0  0  0  0  0  0  0  0
   -1.6985   -5.3656   -2.4493 H   0  0  0  0  0  0  0  0  0  0  0  0
   -5.5596   -2.9039   -1.8558 H   0  0  0  0  0  0  0  0  0  0  0  0
   -3.7143   -1.7263    0.1843 H   0  0  0  0  0  0  0  0  0  0  0  0
   -5.6672   -3.9908    0.9468 H   0  0  0  0  0  0  0  0  0  0  0  0
   -3.8739   -4.1367    0.9107 H   0  0  0  0  0  0  0  0  0  0  0  0
   -4.6609   -3.0058    2.0727 H   0  0  0  0  0  0  0  0  0  0  0  0
   -4.5814    0.2813    0.8241 H   0  0  0  0  0  0  0  0  0  0  0  0
   -7.3733    0.3710    1.6171 H   0  0  0  0  0  0  0  0  0  0  0  0
   -7.9545    0.4786   -0.7462 H   0  0  0  0  0  0  0  0  0  0  0  0
   -8.2173    2.0902   -0.0093 H   0  0  0  0  0  0  0  0  0  0  0  0
   -6.7792    1.7993   -1.0530 H   0  0  0  0  0  0  0  0  0  0  0  0
   -5.4934    4.1238    1.6982 H   0  0  0  0  0  0  0  0  0  0  0  0
   -4.6018    2.1409   -0.4319 H   0  0  0  0  0  0  0  0  0  0  0  0
   -4.7886    4.5566   -3.1657 H   0  0  0  0  0  0  0  0  0  0  0  0
   -3.7891    3.1633   -2.6386 H   0  0  0  0  0  0  0  0  0  0  0  0
   -2.3905    3.0154   -0.2708 H   0  0  0  0  0  0  0  0  0  0  0  0
   -2.9447    2.6647    1.4020 H   0  0  0  0  0  0  0  0  0  0  0  0
   -0.9319    5.7145    2.4547 H   0  0  0  0  0  0  0  0  0  0  0  0
   -1.8155    4.3061    3.0873 H   0  0  0  0  0  0  0  0  0  0  0  0
  1  2  1  0
  2  3  2  0
  2  4  1  0
  4  5  1  0
  5  6  1  0
  6  7  1  0
  7  8  1  0
  8  9  1  0
  9 10  2  0
 10 11  1  0
 11 12  2  0
 12 13  1  0
 13 14  2  0
 13 15  1  0
 15 16  1  0
 16 17  1  0
 17 18  1  0
 18 19  1  0
 19 20  1  0
 20 21  2  0
 20 22  1  0
 22 23  1  0
 22 24  1  0
 24 25  1  0
 25 26  2  0
 25 27  1  0
 27 28  1  0
 27 29  1  0
 29 30  1  0
 30 31  2  0
 18 32  1  0
 32 33  2  0
 32 34  1  0
 34 35  1  0
 35 36  1  0
 35 37  1  0
 37 38  2  0
 37 39  1  0
 39 40  1  0
 40 41  1  0
 40 42  1  0
 42 43  2  0
 42 44  1  0
 44 45  1  0
 45 46  1  0
 45 47  1  0
 47 48  2  0
 47 49  1  0
 49 50  1  0
 50 51  1  0
 51 52  1  0
 51 53  2  0
 50 54  1  0
 54 55  1  0
 55 56  1  0
 30  5  1  0
 14  9  1  0
 56 11  1  0
  1 57  1  0
  1 58  1  0
  1 59  1  0
  4 60  1  0
  5 61  1  1
  6 62  1  0
  6 63  1  0
  8 64  1  0
  8 65  1  0
 10 66  1  0
 12 67  1  0
 14 68  1  0
 15 69  1  0
 15 70  1  0
 17 71  1  0
 17 72  1  0
 18 73  1  6
 19 74  1  0
 22 75  1  1
 23 76  1  0
 23 77  1  0
 23 78  1  0
 24 79  1  0
 27 80  1  1
 28 81  1  0
 28 82  1  0
 28 83  1  0
 29 84  1  0
 34 85  1  0
 35 86  1  1
 36 87  1  0
 36 88  1  0
 36 89  1  0
 39 90  1  0
 40 91  1  1
 41 92  1  0
 41 93  1  0
 41 94  1  0
 44 95  1  0
 45 96  1  1
 46 97  1  0
 46 98  1  0
 46 99  1  0
 49100  1  0
 50101  1  6
 52102  1  0
 52103  1  0
 54104  1  0
 54105  1  0
 56106  1  0
 56107  1  0
M  END
