
     RDKit          3D

107109  0  0  0  0  0  0  0  0999 V2000
    7.2871    1.4527   -1.8370 C   0  0  0  0  0  0  0  0  0  0  0  0
    7.8365    2.3742   -0.7969 C   0  0  0  0  0  0  0  0  0  0  0  0
    9.0086    2.8062   -0.9208 O   0  0  0  0  0  0  0  0  0  0  0  0
    7.0806    2.7649    0.3609 N   0  0  0  0  0  0  0  0  0  0  0  0
    5.8792    2.0567    0.8232 C   0  0  2  0  0  0  0  0  0  0  0  0
    4.9485    3.0065    1.5996 C   0  0  0  0  0  0  0  0  0  0  0  0
    4.7657    4.6465    0.7910 S   0  0  0  0  0  0  0  0  0  0  0  0
    3.9379    4.1260   -0.7596 C   0  0  0  0  0  0  0  0  0  0  0  0
    2.5894    3.5424   -0.4538 C   0  0  0  0  0  0  0  0  0  0  0  0
    2.3731    2.1679   -0.6012 C   0  0  0  0  0  0  0  0  0  0  0  0
    1.1426    1.5983   -0.2430 C   0  0  0  0  0  0  0  0  0  0  0  0
    0.1261    2.4314    0.2629 C   0  0  0  0  0  0  0  0  0  0  0  0
    0.3284    3.8141    0.3877 C   0  0  0  0  0  0  0  0  0  0  0  0
    1.5656    4.3590    0.0388 C   0  0  0  0  0  0  0  0  0  0  0  0
   -0.7558    4.6994    0.9387 C   0  0  0  0  0  0  0  0  0  0  0  0
   -1.6504    5.5679   -0.4114 S   0  0  0  0  0  0  0  0  0  0  0  0
   -2.5597    4.1287   -1.1380 C   0  0  0  0  0  0  0  0  0  0  0  0
   -3.7072    3.6178   -0.2435 C   0  0  1  0  0  0  0  0  0  0  0  0
   -4.6037    4.7436    0.2142 C   0  0  0  0  0  0  0  0  0  0  0  0
   -5.2833    5.5765   -0.7334 N   0  0  0  0  0  0  0  0  0  0  0  0
   -4.7420    4.9622    1.4458 O   0  0  0  0  0  0  0  0  0  0  0  0
   -4.5127    2.6227   -0.9619 N   0  0  0  0  0  0  0  0  0  0  0  0
   -4.3961    1.2169   -0.7066 C   0  0  0  0  0  0  0  0  0  0  0  0
   -3.7816    0.4969   -1.5396 O   0  0  0  0  0  0  0  0  0  0  0  0
   -5.1142    0.5380    0.4377 C   0  0  1  0  0  0  0  0  0  0  0  0
   -5.6021    1.5147    1.5096 C   0  0  0  0  0  0  0  0  0  0  0  0
   -6.2677   -0.1968   -0.0949 N   0  0  0  0  0  0  0  0  0  0  0  0
   -6.6748   -1.5426    0.2404 C   0  0  0  0  0  0  0  0  0  0  0  0
   -7.6962   -2.0182   -0.3313 O   0  0  0  0  0  0  0  0  0  0  0  0
   -5.8776   -2.4243    1.1879 C   0  0  1  0  0  0  0  0  0  0  0  0
   -6.7430   -3.5363    1.8051 C   0  0  0  0  0  0  0  0  0  0  0  0
   -4.6928   -3.0101    0.5382 N   0  0  0  0  0  0  0  0  0  0  0  0
   -4.6952   -3.6854   -0.7363 C   0  0  0  0  0  0  0  0  0  0  0  0
   -5.6837   -3.5731   -1.5187 O   0  0  0  0  0  0  0  0  0  0  0  0
   -3.4665   -4.4739   -1.1547 C   0  0  1  0  0  0  0  0  0  0  0  0
   -3.6452   -5.1443   -2.5230 C   0  0  0  0  0  0  0  0  0  0  0  0
   -2.2952   -3.5741   -1.1753 N   0  0  0  0  0  0  0  0  0  0  0  0
   -0.9352   -4.0320   -1.3289 C   0  0  0  0  0  0  0  0  0  0  0  0
   -0.7081   -5.2613   -1.4608 O   0  0  0  0  0  0  0  0  0  0  0  0
    0.2371   -3.0780   -1.2164 C   0  0  1  0  0  0  0  0  0  0  0  0
    0.0194   -1.7916   -2.0497 C   0  0  0  0  0  0  0  0  0  0  0  0
    1.4103   -0.5979   -1.9138 S   0  0  0  0  0  0  0  0  0  0  0  0
    0.9541    0.1071   -0.2751 C   0  0  0  0  0  0  0  0  0  0  0  0
    0.4705   -2.7898    0.2014 N   0  0  0  0  0  0  0  0  0  0  0  0
    1.4336   -3.4645    1.0358 C   0  0  0  0  0  0  0  0  0  0  0  0
    1.1041   -3.7524    2.2169 O   0  0  0  0  0  0  0  0  0  0  0  0
    2.8437   -3.7884    0.6001 C   0  0  1  0  0  0  0  0  0  0  0  0
    2.9380   -5.1594   -0.0773 C   0  0  0  0  0  0  0  0  0  0  0  0
    3.3981   -2.7313   -0.2504 N   0  0  0  0  0  0  0  0  0  0  0  0
    4.6110   -2.0463    0.0901 C   0  0  0  0  0  0  0  0  0  0  0  0
    5.6436   -2.2766   -0.5941 O   0  0  0  0  0  0  0  0  0  0  0  0
    4.6365   -0.9327    1.1160 C   0  0  1  0  0  0  0  0  0  0  0  0
    4.0744   -1.3675    2.4748 C   0  0  0  0  0  0  0  0  0  0  0  0
    6.0099   -0.4467    1.3001 N   0  0  0  0  0  0  0  0  0  0  0  0
    6.2944    0.9026    1.6953 C   0  0  0  0  0  0  0  0  0  0  0  0
    7.0015    1.1188    2.7312 O   0  0  0  0  0  0  0  0  0  0  0  0
    8.0426    1.2762   -2.6328 H   0  0  0  0  0  0  0  0  0  0  0  0
    6.3988    1.9131   -2.3021 H   0  0  0  0  0  0  0  0  0  0  0  0
    7.0071    0.4803   -1.3824 H   0  0  0  0  0  0  0  0  0  0  0  0
    7.5427    3.4175    1.0325 H   0  0  0  0  0  0  0  0  0  0  0  0
    5.3169    1.6722   -0.0480 H   0  0  0  0  0  0  0  0  0  0  0  0
    5.3506    3.1937    2.6204 H   0  0  0  0  0  0  0  0  0  0  0  0
    3.9529    2.5360    1.7375 H   0  0  0  0  0  0  0  0  0  0  0  0
    3.8174    5.0360   -1.3940 H   0  0  0  0  0  0  0  0  0  0  0  0
    4.5670    3.4180   -1.3423 H   0  0  0  0  0  0  0  0  0  0  0  0
    3.1861    1.5326   -0.9366 H   0  0  0  0  0  0  0  0  0  0  0  0
   -0.8304    2.0076    0.5637 H   0  0  0  0  0  0  0  0  0  0  0  0
    1.7464    5.4111    0.1850 H   0  0  0  0  0  0  0  0  0  0  0  0
   -1.4577    4.1323    1.5918 H   0  0  0  0  0  0  0  0  0  0  0  0
   -0.2853    5.4782    1.6005 H   0  0  0  0  0  0  0  0  0  0  0  0
   -1.8653    3.2995   -1.3768 H   0  0  0  0  0  0  0  0  0  0  0  0
   -2.9823    4.4593   -2.1041 H   0  0  0  0  0  0  0  0  0  0  0  0
   -3.2362    3.1342    0.6442 H   0  0  0  0  0  0  0  0  0  0  0  0
   -5.1531    5.4351   -1.7583 H   0  0  0  0  0  0  0  0  0  0  0  0
   -5.9107    6.3363   -0.3938 H   0  0  0  0  0  0  0  0  0  0  0  0
   -4.9165    2.9069   -1.8864 H   0  0  0  0  0  0  0  0  0  0  0  0
   -4.3936   -0.1589    0.9157 H   0  0  0  0  0  0  0  0  0  0  0  0
   -6.1314    0.9601    2.3128 H   0  0  0  0  0  0  0  0  0  0  0  0
   -6.3220    2.2439    1.0684 H   0  0  0  0  0  0  0  0  0  0  0  0
   -4.7432    2.0505    1.9775 H   0  0  0  0  0  0  0  0  0  0  0  0
   -6.9226    0.3350   -0.7127 H   0  0  0  0  0  0  0  0  0  0  0  0
   -5.5363   -1.7927    2.0369 H   0  0  0  0  0  0  0  0  0  0  0  0
   -7.1326   -4.2245    1.0173 H   0  0  0  0  0  0  0  0  0  0  0  0
   -6.1355   -4.1236    2.5365 H   0  0  0  0  0  0  0  0  0  0  0  0
   -7.5987   -3.0741    2.3529 H   0  0  0  0  0  0  0  0  0  0  0  0
   -3.8762   -3.2001    1.1541 H   0  0  0  0  0  0  0  0  0  0  0  0
   -3.3159   -5.2662   -0.3918 H   0  0  0  0  0  0  0  0  0  0  0  0
   -2.7997   -5.8243   -2.7218 H   0  0  0  0  0  0  0  0  0  0  0  0
   -3.7010   -4.3743   -3.3159 H   0  0  0  0  0  0  0  0  0  0  0  0
   -4.5712   -5.7489   -2.5389 H   0  0  0  0  0  0  0  0  0  0  0  0
   -2.4468   -2.5689   -0.9503 H   0  0  0  0  0  0  0  0  0  0  0  0
    1.1121   -3.5817   -1.6561 H   0  0  0  0  0  0  0  0  0  0  0  0
   -0.0511   -2.0718   -3.1164 H   0  0  0  0  0  0  0  0  0  0  0  0
   -0.9269   -1.2809   -1.8033 H   0  0  0  0  0  0  0  0  0  0  0  0
   -0.0985   -0.1323   -0.0153 H   0  0  0  0  0  0  0  0  0  0  0  0
    1.6038   -0.3410    0.5043 H   0  0  0  0  0  0  0  0  0  0  0  0
   -0.3121   -2.3334    0.7095 H   0  0  0  0  0  0  0  0  0  0  0  0
    3.4670   -3.8676    1.5137 H   0  0  0  0  0  0  0  0  0  0  0  0
    2.1950   -5.3013   -0.8803 H   0  0  0  0  0  0  0  0  0  0  0  0
    3.9579   -5.2917   -0.5177 H   0  0  0  0  0  0  0  0  0  0  0  0
    2.7752   -5.9561    0.6808 H   0  0  0  0  0  0  0  0  0  0  0  0
    3.1729   -2.7704   -1.2683 H   0  0  0  0  0  0  0  0  0  0  0  0
    4.0046   -0.1021    0.7329 H   0  0  0  0  0  0  0  0  0  0  0  0
    4.1792   -0.5267    3.2012 H   0  0  0  0  0  0  0  0  0  0  0  0
    4.6486   -2.2436    2.8507 H   0  0  0  0  0  0  0  0  0  0  0  0
    2.9951   -1.6157    2.3887 H   0  0  0  0  0  0  0  0  0  0  0  0
    6.7532   -1.1584    1.5212 H   0  0  0  0  0  0  0  0  0  0  0  0
  1  2  1  0
  2  3  2  0
  2  4  1  0
  4  5  1  0
  5  6  1  0
  6  7  1  0
  7  8  1  0
  8  9  1  0
  9 10  2  0
 10 11  1  0
 11 12  2  0
 12 13  1  0
 13 14  2  0
 13 15  1  0
 15 16  1  0
 16 17  1  0
 17 18  1  0
 18 19  1  0
 19 20  1  0
 19 21  2  0
 18 22  1  0
 22 23  1  0
 23 24  2  0
 23 25  1  0
 25 26  1  0
 25 27  1  0
 27 28  1  0
 28 29  2  0
 28 30  1  0
 30 31  1  0
 30 32  1  0
 32 33  1  0
 33 34  2  0
 33 35  1  0
 35 36  1  0
 35 37  1  0
 37 38  1  0
 38 39  2  0
 38 40  1  0
 40 41  1  0
 41 42  1  0
 42 43  1  0
 40 44  1  0
 44 45  1  0
 45 46  2  0
 45 47  1  0
 47 48  1  0
 47 49  1  0
 49 50  1  0
 50 51  2  0
 50 52  1  0
 52 53  1  0
 52 54  1  0
 54 55  1  0
 55 56  2  0
 55  5  1  0
 14  9  1  0
 43 11  1  0
  1 57  1  0
  1 58  1  0
  1 59  1  0
  4 60  1  0
  5 61  1  6
  6 62  1  0
  6 63  1  0
  8 64  1  0
  8 65  1  0
 10 66  1  0
 12 67  1  0
 14 68  1  0
 15 69  1  0
 15 70  1  0
 17 71  1  0
 17 72  1  0
 18 73  1  1
 20 74  1  0
 20 75  1  0
 22 76  1  0
 25 77  1  1
 26 78  1  0
 26 79  1  0
 26 80  1  0
 27 81  1  0
 30 82  1  1
 31 83  1  0
 31 84  1  0
 31 85  1  0
 32 86  1  0
 35 87  1  1
 36 88  1  0
 36 89  1  0
 36 90  1  0
 37 91  1  0
 40 92  1  6
 41 93  1  0
 41 94  1  0
 43 95  1  0
 43 96  1  0
 44 97  1  0
 47 98  1  1
 48 99  1  0
 48100  1  0
 48101  1  0
 49102  1  0
 52103  1  6
 53104  1  0
 53105  1  0
 53106  1  0
 54107  1  0
M  END
