
     RDKit          3D

107109  0  0  0  0  0  0  0  0999 V2000
   10.3754    1.8762    0.4804 C   0  0  0  0  0  0  0  0  0  0  0  0
    8.9523    2.0362    0.9043 C   0  0  0  0  0  0  0  0  0  0  0  0
    8.6968    2.2903    2.1176 O   0  0  0  0  0  0  0  0  0  0  0  0
    7.8942    1.8893   -0.0495 N   0  0  0  0  0  0  0  0  0  0  0  0
    6.4817    1.9132    0.3350 C   0  0  1  0  0  0  0  0  0  0  0  0
    6.0110    3.3669    0.5427 C   0  0  0  0  0  0  0  0  0  0  0  0
    4.4033    3.3973    1.4170 S   0  0  0  0  0  0  0  0  0  0  0  0
    3.3669    3.9750    0.0255 C   0  0  0  0  0  0  0  0  0  0  0  0
    2.0044    3.3709    0.1642 C   0  0  0  0  0  0  0  0  0  0  0  0
    1.8112    2.0240   -0.1670 C   0  0  0  0  0  0  0  0  0  0  0  0
    0.5700    1.4044    0.0393 C   0  0  0  0  0  0  0  0  0  0  0  0
   -0.4693    2.1378    0.6397 C   0  0  0  0  0  0  0  0  0  0  0  0
   -0.2975    3.4976    0.9376 C   0  0  0  0  0  0  0  0  0  0  0  0
    0.9361    4.1122    0.6802 C   0  0  0  0  0  0  0  0  0  0  0  0
   -1.4109    4.3013    1.5598 C   0  0  0  0  0  0  0  0  0  0  0  0
   -2.2481    5.3275    0.3003 S   0  0  0  0  0  0  0  0  0  0  0  0
   -3.4333    4.0676   -0.2988 C   0  0  0  0  0  0  0  0  0  0  0  0
   -4.6914    3.9873    0.5838 C   0  0  1  0  0  0  0  0  0  0  0  0
   -5.3958    5.3217    0.6440 C   0  0  0  0  0  0  0  0  0  0  0  0
   -5.9283    5.9130   -0.5401 N   0  0  0  0  0  0  0  0  0  0  0  0
   -5.5100    5.9207    1.7512 O   0  0  0  0  0  0  0  0  0  0  0  0
   -5.6001    2.9537    0.0711 N   0  0  0  0  0  0  0  0  0  0  0  0
   -5.3280    1.5547    0.2083 C   0  0  0  0  0  0  0  0  0  0  0  0
   -4.3162    1.1651    0.8615 O   0  0  0  0  0  0  0  0  0  0  0  0
   -6.2334    0.5488   -0.4450 C   0  0  1  0  0  0  0  0  0  0  0  0
   -5.5037   -0.1318   -1.6206 C   0  0  0  0  0  0  0  0  0  0  0  0
   -6.7284   -0.3914    0.5701 N   0  0  0  0  0  0  0  0  0  0  0  0
   -6.5757   -1.8099    0.4923 C   0  0  0  0  0  0  0  0  0  0  0  0
   -7.4091   -2.4859   -0.1683 O   0  0  0  0  0  0  0  0  0  0  0  0
   -5.4203   -2.4812    1.1921 C   0  0  1  0  0  0  0  0  0  0  0  0
   -5.3950   -2.0950    2.6734 C   0  0  0  0  0  0  0  0  0  0  0  0
   -5.5125   -3.9410    1.0650 N   0  0  0  0  0  0  0  0  0  0  0  0
   -4.4155   -4.7697    0.6448 C   0  0  0  0  0  0  0  0  0  0  0  0
   -4.0280   -5.6914    1.4096 O   0  0  0  0  0  0  0  0  0  0  0  0
   -3.7792   -4.6510   -0.7237 C   0  0  1  0  0  0  0  0  0  0  0  0
   -4.7816   -4.2414   -1.8075 C   0  0  0  0  0  0  0  0  0  0  0  0
   -2.6607   -3.7041   -0.7019 N   0  0  0  0  0  0  0  0  0  0  0  0
   -1.3433   -4.0544   -1.1368 C   0  0  0  0  0  0  0  0  0  0  0  0
   -0.9490   -5.2479   -1.0238 O   0  0  0  0  0  0  0  0  0  0  0  0
   -0.4079   -3.0503   -1.7821 C   0  0  1  0  0  0  0  0  0  0  0  0
   -0.9860   -1.6345   -2.0297 C   0  0  0  0  0  0  0  0  0  0  0  0
   -1.2654   -0.6327   -0.5185 S   0  0  0  0  0  0  0  0  0  0  0  0
    0.4558   -0.0698   -0.2449 C   0  0  0  0  0  0  0  0  0  0  0  0
    0.9134   -2.9930   -1.1400 N   0  0  0  0  0  0  0  0  0  0  0  0
    1.2064   -3.2938    0.2363 C   0  0  0  0  0  0  0  0  0  0  0  0
    0.2821   -3.3978    1.0834 O   0  0  0  0  0  0  0  0  0  0  0  0
    2.6380   -3.4825    0.6768 C   0  0  1  0  0  0  0  0  0  0  0  0
    3.2660   -4.6654   -0.0687 C   0  0  0  0  0  0  0  0  0  0  0  0
    3.4186   -2.2591    0.4333 N   0  0  0  0  0  0  0  0  0  0  0  0
    4.7688   -2.1027    0.9096 C   0  0  0  0  0  0  0  0  0  0  0  0
    5.1838   -2.8318    1.8585 O   0  0  0  0  0  0  0  0  0  0  0  0
    5.7502   -1.1625    0.2382 C   0  0  1  0  0  0  0  0  0  0  0  0
    6.6668   -1.9539   -0.6996 C   0  0  0  0  0  0  0  0  0  0  0  0
    5.0807   -0.0824   -0.5117 N   0  0  0  0  0  0  0  0  0  0  0  0
    5.6624    1.2125   -0.7224 C   0  0  0  0  0  0  0  0  0  0  0  0
    5.5131    1.7705   -1.8432 O   0  0  0  0  0  0  0  0  0  0  0  0
   10.9406    2.8098    0.6918 H   0  0  0  0  0  0  0  0  0  0  0  0
   10.8333    1.0224    1.0229 H   0  0  0  0  0  0  0  0  0  0  0  0
   10.4376    1.6720   -0.6157 H   0  0  0  0  0  0  0  0  0  0  0  0
    8.1484    1.7020   -1.0485 H   0  0  0  0  0  0  0  0  0  0  0  0
    6.3688    1.3798    1.3015 H   0  0  0  0  0  0  0  0  0  0  0  0
    5.9822    3.9245   -0.4171 H   0  0  0  0  0  0  0  0  0  0  0  0
    6.7439    3.9000    1.1881 H   0  0  0  0  0  0  0  0  0  0  0  0
    3.3101    5.0829    0.0498 H   0  0  0  0  0  0  0  0  0  0  0  0
    3.7841    3.6827   -0.9587 H   0  0  0  0  0  0  0  0  0  0  0  0
    2.6346    1.4425   -0.5561 H   0  0  0  0  0  0  0  0  0  0  0  0
   -1.4075    1.6630    0.8807 H   0  0  0  0  0  0  0  0  0  0  0  0
    1.0643    5.1594    0.9253 H   0  0  0  0  0  0  0  0  0  0  0  0
   -0.9698    4.9781    2.3229 H   0  0  0  0  0  0  0  0  0  0  0  0
   -2.1346    3.6550    2.0934 H   0  0  0  0  0  0  0  0  0  0  0  0
   -3.7194    4.3375   -1.3339 H   0  0  0  0  0  0  0  0  0  0  0  0
   -2.9304    3.0858   -0.3626 H   0  0  0  0  0  0  0  0  0  0  0  0
   -4.3881    3.7085    1.6160 H   0  0  0  0  0  0  0  0  0  0  0  0
   -6.3815    6.8515   -0.4900 H   0  0  0  0  0  0  0  0  0  0  0  0
   -5.9090    5.4073   -1.4486 H   0  0  0  0  0  0  0  0  0  0  0  0
   -6.5037    3.2411   -0.3636 H   0  0  0  0  0  0  0  0  0  0  0  0
   -7.1227    1.0676   -0.8608 H   0  0  0  0  0  0  0  0  0  0  0  0
   -6.1996   -0.8273   -2.1386 H   0  0  0  0  0  0  0  0  0  0  0  0
   -5.1639    0.6278   -2.3563 H   0  0  0  0  0  0  0  0  0  0  0  0
   -4.6241   -0.7114   -1.2657 H   0  0  0  0  0  0  0  0  0  0  0  0
   -7.2834   -0.0130    1.3711 H   0  0  0  0  0  0  0  0  0  0  0  0
   -4.4866   -2.1008    0.7435 H   0  0  0  0  0  0  0  0  0  0  0  0
   -5.2476   -1.0003    2.7831 H   0  0  0  0  0  0  0  0  0  0  0  0
   -4.5518   -2.6122    3.1868 H   0  0  0  0  0  0  0  0  0  0  0  0
   -6.3462   -2.3879    3.1703 H   0  0  0  0  0  0  0  0  0  0  0  0
   -6.3137   -4.4146    1.5302 H   0  0  0  0  0  0  0  0  0  0  0  0
   -3.4116   -5.6651   -0.9980 H   0  0  0  0  0  0  0  0  0  0  0  0
   -5.1191   -3.1961   -1.6508 H   0  0  0  0  0  0  0  0  0  0  0  0
   -4.2944   -4.3055   -2.8081 H   0  0  0  0  0  0  0  0  0  0  0  0
   -5.6674   -4.9178   -1.7953 H   0  0  0  0  0  0  0  0  0  0  0  0
   -2.8941   -2.7116   -0.5164 H   0  0  0  0  0  0  0  0  0  0  0  0
   -0.2271   -3.4584   -2.8012 H   0  0  0  0  0  0  0  0  0  0  0  0
   -1.9698   -1.7298   -2.5426 H   0  0  0  0  0  0  0  0  0  0  0  0
   -0.3405   -1.0669   -2.7355 H   0  0  0  0  0  0  0  0  0  0  0  0
    0.8590   -0.6181    0.6297 H   0  0  0  0  0  0  0  0  0  0  0  0
    1.0819   -0.3118   -1.1278 H   0  0  0  0  0  0  0  0  0  0  0  0
    1.7173   -2.7235   -1.7557 H   0  0  0  0  0  0  0  0  0  0  0  0
    2.6483   -3.7135    1.7646 H   0  0  0  0  0  0  0  0  0  0  0  0
    2.6443   -5.5781    0.0503 H   0  0  0  0  0  0  0  0  0  0  0  0
    3.3691   -4.4405   -1.1478 H   0  0  0  0  0  0  0  0  0  0  0  0
    4.2697   -4.8842    0.3451 H   0  0  0  0  0  0  0  0  0  0  0  0
    2.9662   -1.4622   -0.0624 H   0  0  0  0  0  0  0  0  0  0  0  0
    6.3971   -0.7521    1.0378 H   0  0  0  0  0  0  0  0  0  0  0  0
    7.1837   -2.7648   -0.1414 H   0  0  0  0  0  0  0  0  0  0  0  0
    7.4442   -1.2816   -1.1163 H   0  0  0  0  0  0  0  0  0  0  0  0
    6.0855   -2.3964   -1.5378 H   0  0  0  0  0  0  0  0  0  0  0  0
    4.4079   -0.3827   -1.2548 H   0  0  0  0  0  0  0  0  0  0  0  0
  1  2  1  0
  2  3  2  0
  2  4  1  0
  4  5  1  0
  5  6  1  0
  6  7  1  0
  7  8  1  0
  8  9  1  0
  9 10  2  0
 10 11  1  0
 11 12  2  0
 12 13  1  0
 13 14  2  0
 13 15  1  0
 15 16  1  0
 16 17  1  0
 17 18  1  0
 18 19  1  0
 19 20  1  0
 19 21  2  0
 18 22  1  0
 22 23  1  0
 23 24  2  0
 23 25  1  0
 25 26  1  0
 25 27  1  0
 27 28  1  0
 28 29  2  0
 28 30  1  0
 30 31  1  0
 30 32  1  0
 32 33  1  0
 33 34  2  0
 33 35  1  0
 35 36  1  0
 35 37  1  0
 37 38  1  0
 38 39  2  0
 38 40  1  0
 40 41  1  0
 41 42  1  0
 42 43  1  0
 40 44  1  0
 44 45  1  0
 45 46  2  0
 45 47  1  0
 47 48  1  0
 47 49  1  0
 49 50  1  0
 50 51  2  0
 50 52  1  0
 52 53  1  0
 52 54  1  0
 54 55  1  0
 55 56  2  0
 55  5  1  0
 14  9  1  0
 43 11  1  0
  1 57  1  0
  1 58  1  0
  1 59  1  0
  4 60  1  0
  5 61  1  1
  6 62  1  0
  6 63  1  0
  8 64  1  0
  8 65  1  0
 10 66  1  0
 12 67  1  0
 14 68  1  0
 15 69  1  0
 15 70  1  0
 17 71  1  0
 17 72  1  0
 18 73  1  1
 20 74  1  0
 20 75  1  0
 22 76  1  0
 25 77  1  6
 26 78  1  0
 26 79  1  0
 26 80  1  0
 27 81  1  0
 30 82  1  6
 31 83  1  0
 31 84  1  0
 31 85  1  0
 32 86  1  0
 35 87  1  6
 36 88  1  0
 36 89  1  0
 36 90  1  0
 37 91  1  0
 40 92  1  6
 41 93  1  0
 41 94  1  0
 43 95  1  0
 43 96  1  0
 44 97  1  0
 47 98  1  1
 48 99  1  0
 48100  1  0
 48101  1  0
 49102  1  0
 52103  1  1
 53104  1  0
 53105  1  0
 53106  1  0
 54107  1  0
M  END
