
     RDKit          3D

117119  0  0  0  0  0  0  0  0999 V2000
    9.6474    2.9744   -2.2610 C   0  0  0  0  0  0  0  0  0  0  0  0
    8.1839    2.8619   -1.9777 C   0  0  0  0  0  0  0  0  0  0  0  0
    7.3842    3.6041   -2.6070 O   0  0  0  0  0  0  0  0  0  0  0  0
    7.6933    1.9212   -1.0114 N   0  0  0  0  0  0  0  0  0  0  0  0
    6.2835    1.8478   -0.6077 C   0  0  2  0  0  0  0  0  0  0  0  0
    6.1451    2.3123    0.8587 C   0  0  0  0  0  0  0  0  0  0  0  0
    4.5758    1.8452    1.6749 S   0  0  0  0  0  0  0  0  0  0  0  0
    3.4410    2.9036    0.6906 C   0  0  0  0  0  0  0  0  0  0  0  0
    2.0049    2.5499    0.9927 C   0  0  0  0  0  0  0  0  0  0  0  0
    1.0636    3.5472    1.3003 C   0  0  0  0  0  0  0  0  0  0  0  0
   -0.2828    3.2057    1.5277 C   0  0  0  0  0  0  0  0  0  0  0  0
   -0.6735    1.8581    1.4879 C   0  0  0  0  0  0  0  0  0  0  0  0
    0.2608    0.8546    1.2129 C   0  0  0  0  0  0  0  0  0  0  0  0
    1.5914    1.2107    0.9452 C   0  0  0  0  0  0  0  0  0  0  0  0
   -0.1559   -0.5944    1.2020 C   0  0  0  0  0  0  0  0  0  0  0  0
   -0.8560   -1.0420   -0.4211 S   0  0  0  0  0  0  0  0  0  0  0  0
    0.6962   -1.5549   -1.2548 C   0  0  0  0  0  0  0  0  0  0  0  0
    1.0963   -3.0442   -1.0993 C   0  0  1  0  0  0  0  0  0  0  0  0
    1.4435   -3.3970    0.2838 N   0  0  0  0  0  0  0  0  0  0  0  0
    2.8072   -3.5687    0.6968 C   0  0  0  0  0  0  0  0  0  0  0  0
    3.2120   -4.7154    1.0269 O   0  0  0  0  0  0  0  0  0  0  0  0
    3.7060   -2.3767    0.9140 C   0  0  1  0  0  0  0  0  0  0  0  0
    3.6612   -1.9649    2.3946 C   0  0  0  0  0  0  0  0  0  0  0  0
    5.0661   -2.6666    0.4349 N   0  0  0  0  0  0  0  0  0  0  0  0
    6.2502   -2.1609    1.0742 C   0  0  0  0  0  0  0  0  0  0  0  0
    6.5457   -2.5571    2.2345 O   0  0  0  0  0  0  0  0  0  0  0  0
    7.1854   -1.2154    0.3667 C   0  0  1  0  0  0  0  0  0  0  0  0
    8.4997   -1.9244    0.0302 C   0  0  0  0  0  0  0  0  0  0  0  0
    6.5770   -0.7000   -0.8580 N   0  0  0  0  0  0  0  0  0  0  0  0
    5.7389    0.4614   -0.8675 C   0  0  0  0  0  0  0  0  0  0  0  0
    4.5404    0.3396   -1.2373 O   0  0  0  0  0  0  0  0  0  0  0  0
    0.0717   -3.9985   -1.6888 C   0  0  0  0  0  0  0  0  0  0  0  0
    0.4641   -4.9037   -2.4763 O   0  0  0  0  0  0  0  0  0  0  0  0
   -1.3357   -3.8469   -1.4638 N   0  0  0  0  0  0  0  0  0  0  0  0
   -1.9849   -4.3257   -0.2390 C   0  0  2  0  0  0  0  0  0  0  0  0
   -2.2270   -5.8361   -0.3064 C   0  0  0  0  0  0  0  0  0  0  0  0
   -3.2682   -3.5768    0.0087 C   0  0  0  0  0  0  0  0  0  0  0  0
   -3.3323   -2.7773    0.9839 O   0  0  0  0  0  0  0  0  0  0  0  0
   -4.4060   -3.7530   -0.8447 N   0  0  0  0  0  0  0  0  0  0  0  0
   -5.7683   -3.4268   -0.4121 C   0  0  2  0  0  0  0  0  0  0  0  0
   -6.6471   -4.6695   -0.5262 C   0  0  0  0  0  0  0  0  0  0  0  0
   -6.3444   -2.3184   -1.2662 C   0  0  0  0  0  0  0  0  0  0  0  0
   -6.2233   -2.3867   -2.5177 O   0  0  0  0  0  0  0  0  0  0  0  0
   -7.1081   -1.2359   -0.7006 N   0  0  0  0  0  0  0  0  0  0  0  0
   -6.9555   -0.7447    0.6750 C   0  0  2  0  0  0  0  0  0  0  0  0
   -7.9992    0.3274    1.0081 C   0  0  0  0  0  0  0  0  0  0  0  0
   -5.5513   -0.2343    0.9337 C   0  0  0  0  0  0  0  0  0  0  0  0
   -4.9811   -0.5922    1.9955 O   0  0  0  0  0  0  0  0  0  0  0  0
   -4.8048    0.5770    0.0010 N   0  0  0  0  0  0  0  0  0  0  0  0
   -5.3917    1.4583   -1.0223 C   0  0  2  0  0  0  0  0  0  0  0  0
   -4.5425    1.4214   -2.2956 C   0  0  0  0  0  0  0  0  0  0  0  0
   -5.5086    2.8613   -0.4870 C   0  0  0  0  0  0  0  0  0  0  0  0
   -6.6486    3.3780   -0.3262 O   0  0  0  0  0  0  0  0  0  0  0  0
   -4.3555    3.5921   -0.0764 N   0  0  0  0  0  0  0  0  0  0  0  0
   -3.6538    4.4770   -1.0117 C   0  0  1  0  0  0  0  0  0  0  0  0
   -4.2009    5.8837   -0.9489 C   0  0  0  0  0  0  0  0  0  0  0  0
   -4.5112    6.5092    0.2980 N   0  0  0  0  0  0  0  0  0  0  0  0
   -4.3949    6.5184   -2.0196 O   0  0  0  0  0  0  0  0  0  0  0  0
   -2.1287    4.4009   -0.7929 C   0  0  0  0  0  0  0  0  0  0  0  0
   -1.4706    5.4971    0.5279 S   0  0  0  0  0  0  0  0  0  0  0  0
   -1.2917    4.2679    1.8715 C   0  0  0  0  0  0  0  0  0  0  0  0
    9.9955    4.0049   -2.0392 H   0  0  0  0  0  0  0  0  0  0  0  0
    9.8372    2.7442   -3.3290 H   0  0  0  0  0  0  0  0  0  0  0  0
   10.2171    2.2555   -1.6340 H   0  0  0  0  0  0  0  0  0  0  0  0
    8.3826    1.3208   -0.5011 H   0  0  0  0  0  0  0  0  0  0  0  0
    5.6829    2.5439   -1.2349 H   0  0  0  0  0  0  0  0  0  0  0  0
    6.9694    1.8779    1.4665 H   0  0  0  0  0  0  0  0  0  0  0  0
    6.2678    3.4206    0.9071 H   0  0  0  0  0  0  0  0  0  0  0  0
    3.6017    2.7485   -0.3894 H   0  0  0  0  0  0  0  0  0  0  0  0
    3.6491    3.9679    0.9212 H   0  0  0  0  0  0  0  0  0  0  0  0
    1.3697    4.5829    1.3479 H   0  0  0  0  0  0  0  0  0  0  0  0
   -1.7045    1.5855    1.6764 H   0  0  0  0  0  0  0  0  0  0  0  0
    2.3147    0.4413    0.7244 H   0  0  0  0  0  0  0  0  0  0  0  0
    0.6924   -1.2501    1.4693 H   0  0  0  0  0  0  0  0  0  0  0  0
   -0.9279   -0.7719    1.9841 H   0  0  0  0  0  0  0  0  0  0  0  0
    0.5423   -1.3605   -2.3427 H   0  0  0  0  0  0  0  0  0  0  0  0
    1.5240   -0.8985   -0.9433 H   0  0  0  0  0  0  0  0  0  0  0  0
    2.0169   -3.1701   -1.7156 H   0  0  0  0  0  0  0  0  0  0  0  0
    0.7489   -3.8972    0.8650 H   0  0  0  0  0  0  0  0  0  0  0  0
    3.3219   -1.5313    0.3214 H   0  0  0  0  0  0  0  0  0  0  0  0
    2.6290   -1.7123    2.6943 H   0  0  0  0  0  0  0  0  0  0  0  0
    4.0151   -2.7890    3.0440 H   0  0  0  0  0  0  0  0  0  0  0  0
    4.2769   -1.0580    2.5721 H   0  0  0  0  0  0  0  0  0  0  0  0
    5.1433   -2.9366   -0.5680 H   0  0  0  0  0  0  0  0  0  0  0  0
    7.4105   -0.3698    1.0506 H   0  0  0  0  0  0  0  0  0  0  0  0
    9.1776   -1.2235   -0.5059 H   0  0  0  0  0  0  0  0  0  0  0  0
    8.3038   -2.7995   -0.6245 H   0  0  0  0  0  0  0  0  0  0  0  0
    9.0012   -2.2650    0.9626 H   0  0  0  0  0  0  0  0  0  0  0  0
    6.4805   -1.3599   -1.6644 H   0  0  0  0  0  0  0  0  0  0  0  0
   -1.9192   -3.8121   -2.3273 H   0  0  0  0  0  0  0  0  0  0  0  0
   -1.3265   -4.1364    0.6276 H   0  0  0  0  0  0  0  0  0  0  0  0
   -1.2553   -6.3676   -0.3711 H   0  0  0  0  0  0  0  0  0  0  0  0
   -2.7411   -6.1774    0.6180 H   0  0  0  0  0  0  0  0  0  0  0  0
   -2.8467   -6.1076   -1.1843 H   0  0  0  0  0  0  0  0  0  0  0  0
   -4.2766   -4.2279   -1.7627 H   0  0  0  0  0  0  0  0  0  0  0  0
   -5.7625   -3.1345    0.6568 H   0  0  0  0  0  0  0  0  0  0  0  0
   -6.6660   -5.0452   -1.5757 H   0  0  0  0  0  0  0  0  0  0  0  0
   -7.6885   -4.4272   -0.2303 H   0  0  0  0  0  0  0  0  0  0  0  0
   -6.2585   -5.4736    0.1309 H   0  0  0  0  0  0  0  0  0  0  0  0
   -7.8304   -0.7951   -1.3161 H   0  0  0  0  0  0  0  0  0  0  0  0
   -7.1619   -1.5865    1.3694 H   0  0  0  0  0  0  0  0  0  0  0  0
   -9.0255   -0.0942    0.9073 H   0  0  0  0  0  0  0  0  0  0  0  0
   -7.9218    1.2072    0.3483 H   0  0  0  0  0  0  0  0  0  0  0  0
   -7.8755    0.6638    2.0609 H   0  0  0  0  0  0  0  0  0  0  0  0
   -3.7838    0.7058    0.2026 H   0  0  0  0  0  0  0  0  0  0  0  0
   -6.3965    1.1043   -1.3052 H   0  0  0  0  0  0  0  0  0  0  0  0
   -4.5775    0.3952   -2.7259 H   0  0  0  0  0  0  0  0  0  0  0  0
   -4.9539    2.1280   -3.0442 H   0  0  0  0  0  0  0  0  0  0  0  0
   -3.4788    1.6834   -2.0750 H   0  0  0  0  0  0  0  0  0  0  0  0
   -4.2387    3.7467    0.9453 H   0  0  0  0  0  0  0  0  0  0  0  0
   -3.8362    4.1154   -2.0439 H   0  0  0  0  0  0  0  0  0  0  0  0
   -4.8882    7.4830    0.3180 H   0  0  0  0  0  0  0  0  0  0  0  0
   -4.3601    6.0155    1.2041 H   0  0  0  0  0  0  0  0  0  0  0  0
   -1.8394    3.3521   -0.6198 H   0  0  0  0  0  0  0  0  0  0  0  0
   -1.6307    4.7002   -1.7369 H   0  0  0  0  0  0  0  0  0  0  0  0
   -0.9536    4.7980    2.7872 H   0  0  0  0  0  0  0  0  0  0  0  0
   -2.2787    3.8274    2.1059 H   0  0  0  0  0  0  0  0  0  0  0  0
  1  2  1  0
  2  3  2  0
  2  4  1  0
  4  5  1  0
  5  6  1  0
  6  7  1  0
  7  8  1  0
  8  9  1  0
  9 10  2  0
 10 11  1  0
 11 12  2  0
 12 13  1  0
 13 14  2  0
 13 15  1  0
 15 16  1  0
 16 17  1  0
 17 18  1  0
 18 19  1  0
 19 20  1  0
 20 21  2  0
 20 22  1  0
 22 23  1  0
 22 24  1  0
 24 25  1  0
 25 26  2  0
 25 27  1  0
 27 28  1  0
 27 29  1  0
 29 30  1  0
 30 31  2  0
 18 32  1  0
 32 33  2  0
 32 34  1  0
 34 35  1  0
 35 36  1  0
 35 37  1  0
 37 38  2  0
 37 39  1  0
 39 40  1  0
 40 41  1  0
 40 42  1  0
 42 43  2  0
 42 44  1  0
 44 45  1  0
 45 46  1  0
 45 47  1  0
 47 48  2  0
 47 49  1  0
 49 50  1  0
 50 51  1  0
 50 52  1  0
 52 53  2  0
 52 54  1  0
 54 55  1  0
 55 56  1  0
 56 57  1  0
 56 58  2  0
 55 59  1  0
 59 60  1  0
 60 61  1  0
 30  5  1  0
 14  9  1  0
 61 11  1  0
  1 62  1  0
  1 63  1  0
  1 64  1  0
  4 65  1  0
  5 66  1  6
  6 67  1  0
  6 68  1  0
  8 69  1  0
  8 70  1  0
 10 71  1  0
 12 72  1  0
 14 73  1  0
 15 74  1  0
 15 75  1  0
 17 76  1  0
 17 77  1  0
 18 78  1  6
 19 79  1  0
 22 80  1  6
 23 81  1  0
 23 82  1  0
 23 83  1  0
 24 84  1  0
 27 85  1  1
 28 86  1  0
 28 87  1  0
 28 88  1  0
 29 89  1  0
 34 90  1  0
 35 91  1  1
 36 92  1  0
 36 93  1  0
 36 94  1  0
 39 95  1  0
 40 96  1  1
 41 97  1  0
 41 98  1  0
 41 99  1  0
 44100  1  0
 45101  1  1
 46102  1  0
 46103  1  0
 46104  1  0
 49105  1  0
 50106  1  6
 51107  1  0
 51108  1  0
 51109  1  0
 54110  1  0
 55111  1  6
 57112  1  0
 57113  1  0
 59114  1  0
 59115  1  0
 61116  1  0
 61117  1  0
M  END
