
     RDKit          3D

117119  0  0  0  0  0  0  0  0999 V2000
    8.9401    3.7924   -1.0033 C   0  0  0  0  0  0  0  0  0  0  0  0
    7.6459    3.1022   -1.2945 C   0  0  0  0  0  0  0  0  0  0  0  0
    7.0767    3.3137   -2.3976 O   0  0  0  0  0  0  0  0  0  0  0  0
    7.0542    2.2359   -0.3117 N   0  0  0  0  0  0  0  0  0  0  0  0
    5.8013    1.4819   -0.4820 C   0  0  1  0  0  0  0  0  0  0  0  0
    4.5975    2.4132   -0.7012 C   0  0  0  0  0  0  0  0  0  0  0  0
    4.4533    3.6518    0.6420 S   0  0  0  0  0  0  0  0  0  0  0  0
    3.4858    2.6161    1.8055 C   0  0  0  0  0  0  0  0  0  0  0  0
    2.0327    2.6036    1.4123 C   0  0  0  0  0  0  0  0  0  0  0  0
    1.2610    3.7723    1.5367 C   0  0  0  0  0  0  0  0  0  0  0  0
   -0.0947    3.7726    1.1672 C   0  0  0  0  0  0  0  0  0  0  0  0
   -0.6570    2.6007    0.6391 C   0  0  0  0  0  0  0  0  0  0  0  0
    0.1084    1.4375    0.4685 C   0  0  0  0  0  0  0  0  0  0  0  0
    1.4458    1.4330    0.9014 C   0  0  0  0  0  0  0  0  0  0  0  0
   -0.5685    0.2048   -0.0941 C   0  0  0  0  0  0  0  0  0  0  0  0
    0.5574   -0.9137   -1.0114 S   0  0  0  0  0  0  0  0  0  0  0  0
    0.6760   -2.1690    0.3155 C   0  0  0  0  0  0  0  0  0  0  0  0
    1.4616   -3.4080   -0.1446 C   0  0  1  0  0  0  0  0  0  0  0  0
    1.7030   -4.2991    0.9954 N   0  0  0  0  0  0  0  0  0  0  0  0
    2.9370   -4.3730    1.7254 C   0  0  0  0  0  0  0  0  0  0  0  0
    3.1082   -5.3399    2.5162 O   0  0  0  0  0  0  0  0  0  0  0  0
    4.0669   -3.3845    1.5101 C   0  0  1  0  0  0  0  0  0  0  0  0
    4.8694   -3.1887    2.8019 C   0  0  0  0  0  0  0  0  0  0  0  0
    4.9370   -3.8684    0.4301 N   0  0  0  0  0  0  0  0  0  0  0  0
    5.9926   -3.1185   -0.2034 C   0  0  0  0  0  0  0  0  0  0  0  0
    6.8172   -3.7471   -0.9261 O   0  0  0  0  0  0  0  0  0  0  0  0
    6.1537   -1.6163   -0.0579 C   0  0  1  0  0  0  0  0  0  0  0  0
    7.5506   -1.3125    0.4969 C   0  0  0  0  0  0  0  0  0  0  0  0
    5.9713   -0.9638   -1.3626 N   0  0  0  0  0  0  0  0  0  0  0  0
    5.9208    0.4582   -1.5958 C   0  0  0  0  0  0  0  0  0  0  0  0
    5.9521    0.8636   -2.7926 O   0  0  0  0  0  0  0  0  0  0  0  0
    0.7805   -4.1556   -1.2793 C   0  0  0  0  0  0  0  0  0  0  0  0
    1.1529   -3.9112   -2.4594 O   0  0  0  0  0  0  0  0  0  0  0  0
   -0.1687   -5.2148   -1.0587 N   0  0  0  0  0  0  0  0  0  0  0  0
   -1.4239   -5.0307   -0.3192 C   0  0  2  0  0  0  0  0  0  0  0  0
   -1.8730   -6.3740    0.2570 C   0  0  0  0  0  0  0  0  0  0  0  0
   -2.4971   -4.4698   -1.2257 C   0  0  0  0  0  0  0  0  0  0  0  0
   -2.3055   -4.4442   -2.4695 O   0  0  0  0  0  0  0  0  0  0  0  0
   -3.7720   -4.0422   -0.7177 N   0  0  0  0  0  0  0  0  0  0  0  0
   -3.9222   -3.1573    0.4435 C   0  0  2  0  0  0  0  0  0  0  0  0
   -4.9948   -3.7298    1.3771 C   0  0  0  0  0  0  0  0  0  0  0  0
   -4.2459   -1.7652   -0.0561 C   0  0  0  0  0  0  0  0  0  0  0  0
   -3.4009   -1.1780   -0.7891 O   0  0  0  0  0  0  0  0  0  0  0  0
   -5.4828   -1.1089    0.2706 N   0  0  0  0  0  0  0  0  0  0  0  0
   -6.3802   -0.5361   -0.7369 C   0  0  2  0  0  0  0  0  0  0  0  0
   -6.7238   -1.5665   -1.8215 C   0  0  0  0  0  0  0  0  0  0  0  0
   -5.8062    0.7301   -1.3263 C   0  0  0  0  0  0  0  0  0  0  0  0
   -4.8761    0.6687   -2.1711 O   0  0  0  0  0  0  0  0  0  0  0  0
   -6.3745    2.0084   -1.0094 N   0  0  0  0  0  0  0  0  0  0  0  0
   -6.1136    2.6704    0.2756 C   0  0  2  0  0  0  0  0  0  0  0  0
   -6.9982    2.0825    1.3826 C   0  0  0  0  0  0  0  0  0  0  0  0
   -6.3683    4.1603    0.1492 C   0  0  0  0  0  0  0  0  0  0  0  0
   -7.5592    4.5679    0.0618 O   0  0  0  0  0  0  0  0  0  0  0  0
   -5.3049    5.1240    0.0877 N   0  0  0  0  0  0  0  0  0  0  0  0
   -3.9219    4.8107   -0.2954 C   0  0  1  0  0  0  0  0  0  0  0  0
   -3.8841    4.3081   -1.7164 C   0  0  0  0  0  0  0  0  0  0  0  0
   -4.5301    5.0410   -2.7648 N   0  0  0  0  0  0  0  0  0  0  0  0
   -3.2702    3.2434   -1.9930 O   0  0  0  0  0  0  0  0  0  0  0  0
   -3.0356    6.0637   -0.1455 C   0  0  0  0  0  0  0  0  0  0  0  0
   -1.2585    5.6775   -0.3957 S   0  0  0  0  0  0  0  0  0  0  0  0
   -0.9292    5.0195    1.2799 C   0  0  0  0  0  0  0  0  0  0  0  0
    9.3344    3.5061   -0.0089 H   0  0  0  0  0  0  0  0  0  0  0  0
    9.6874    3.5069   -1.7755 H   0  0  0  0  0  0  0  0  0  0  0  0
    8.7875    4.8945   -1.0325 H   0  0  0  0  0  0  0  0  0  0  0  0
    7.5297    2.1633    0.6180 H   0  0  0  0  0  0  0  0  0  0  0  0
    5.6080    0.9500    0.4650 H   0  0  0  0  0  0  0  0  0  0  0  0
    4.6960    2.9607   -1.6602 H   0  0  0  0  0  0  0  0  0  0  0  0
    3.6689    1.8043   -0.7769 H   0  0  0  0  0  0  0  0  0  0  0  0
    3.9040    1.5928    1.8532 H   0  0  0  0  0  0  0  0  0  0  0  0
    3.5815    3.0558    2.8244 H   0  0  0  0  0  0  0  0  0  0  0  0
    1.7172    4.6693    1.9303 H   0  0  0  0  0  0  0  0  0  0  0  0
   -1.6970    2.5960    0.3449 H   0  0  0  0  0  0  0  0  0  0  0  0
    2.0498    0.5390    0.8124 H   0  0  0  0  0  0  0  0  0  0  0  0
   -1.1136   -0.3132    0.7254 H   0  0  0  0  0  0  0  0  0  0  0  0
   -1.3341    0.5245   -0.8350 H   0  0  0  0  0  0  0  0  0  0  0  0
    1.2027   -1.7189    1.1842 H   0  0  0  0  0  0  0  0  0  0  0  0
   -0.3396   -2.4490    0.6586 H   0  0  0  0  0  0  0  0  0  0  0  0
    2.4290   -3.0477   -0.5439 H   0  0  0  0  0  0  0  0  0  0  0  0
    0.9224   -4.9051    1.3317 H   0  0  0  0  0  0  0  0  0  0  0  0
    3.6246   -2.4041    1.2346 H   0  0  0  0  0  0  0  0  0  0  0  0
    5.3846   -4.1306    3.0954 H   0  0  0  0  0  0  0  0  0  0  0  0
    4.1925   -2.8698    3.6280 H   0  0  0  0  0  0  0  0  0  0  0  0
    5.6386   -2.3953    2.6746 H   0  0  0  0  0  0  0  0  0  0  0  0
    4.8655   -4.8741    0.1702 H   0  0  0  0  0  0  0  0  0  0  0  0
    5.3975   -1.2220    0.6526 H   0  0  0  0  0  0  0  0  0  0  0  0
    7.7348   -1.8909    1.4286 H   0  0  0  0  0  0  0  0  0  0  0  0
    8.3373   -1.5790   -0.2419 H   0  0  0  0  0  0  0  0  0  0  0  0
    7.6542   -0.2386    0.7502 H   0  0  0  0  0  0  0  0  0  0  0  0
    5.8962   -1.5697   -2.2155 H   0  0  0  0  0  0  0  0  0  0  0  0
   -0.1473   -5.9933   -1.7569 H   0  0  0  0  0  0  0  0  0  0  0  0
   -1.2498   -4.3617    0.5385 H   0  0  0  0  0  0  0  0  0  0  0  0
   -1.0618   -6.8094    0.8781 H   0  0  0  0  0  0  0  0  0  0  0  0
   -2.1189   -7.0897   -0.5588 H   0  0  0  0  0  0  0  0  0  0  0  0
   -2.7764   -6.2411    0.8936 H   0  0  0  0  0  0  0  0  0  0  0  0
   -4.5920   -4.1340   -1.3575 H   0  0  0  0  0  0  0  0  0  0  0  0
   -2.9782   -3.0913    1.0269 H   0  0  0  0  0  0  0  0  0  0  0  0
   -5.9870   -3.7592    0.8777 H   0  0  0  0  0  0  0  0  0  0  0  0
   -5.0588   -3.1161    2.3015 H   0  0  0  0  0  0  0  0  0  0  0  0
   -4.7099   -4.7611    1.6795 H   0  0  0  0  0  0  0  0  0  0  0  0
   -5.8309   -1.1644    1.2534 H   0  0  0  0  0  0  0  0  0  0  0  0
   -7.3394   -0.2781   -0.2397 H   0  0  0  0  0  0  0  0  0  0  0  0
   -5.8113   -1.8773   -2.3810 H   0  0  0  0  0  0  0  0  0  0  0  0
   -7.4589   -1.1377   -2.5375 H   0  0  0  0  0  0  0  0  0  0  0  0
   -7.1782   -2.4670   -1.3462 H   0  0  0  0  0  0  0  0  0  0  0  0
   -6.7229    2.5830   -1.8133 H   0  0  0  0  0  0  0  0  0  0  0  0
   -5.0617    2.4844    0.5656 H   0  0  0  0  0  0  0  0  0  0  0  0
   -8.0600    2.0396    1.0577 H   0  0  0  0  0  0  0  0  0  0  0  0
   -6.9290    2.7061    2.3005 H   0  0  0  0  0  0  0  0  0  0  0  0
   -6.6600    1.0659    1.6496 H   0  0  0  0  0  0  0  0  0  0  0  0
   -5.5638    6.1243    0.2388 H   0  0  0  0  0  0  0  0  0  0  0  0
   -3.5257    4.0380    0.3917 H   0  0  0  0  0  0  0  0  0  0  0  0
   -4.4794    4.7007   -3.7503 H   0  0  0  0  0  0  0  0  0  0  0  0
   -5.0483    5.9227   -2.5659 H   0  0  0  0  0  0  0  0  0  0  0  0
   -3.3315    6.8268   -0.8954 H   0  0  0  0  0  0  0  0  0  0  0  0
   -3.1879    6.5170    0.8560 H   0  0  0  0  0  0  0  0  0  0  0  0
   -0.3998    5.7999    1.8660 H   0  0  0  0  0  0  0  0  0  0  0  0
   -1.8607    4.7752    1.8328 H   0  0  0  0  0  0  0  0  0  0  0  0
  1  2  1  0
  2  3  2  0
  2  4  1  0
  4  5  1  0
  5  6  1  0
  6  7  1  0
  7  8  1  0
  8  9  1  0
  9 10  2  0
 10 11  1  0
 11 12  2  0
 12 13  1  0
 13 14  2  0
 13 15  1  0
 15 16  1  0
 16 17  1  0
 17 18  1  0
 18 19  1  0
 19 20  1  0
 20 21  2  0
 20 22  1  0
 22 23  1  0
 22 24  1  0
 24 25  1  0
 25 26  2  0
 25 27  1  0
 27 28  1  0
 27 29  1  0
 29 30  1  0
 30 31  2  0
 18 32  1  0
 32 33  2  0
 32 34  1  0
 34 35  1  0
 35 36  1  0
 35 37  1  0
 37 38  2  0
 37 39  1  0
 39 40  1  0
 40 41  1  0
 40 42  1  0
 42 43  2  0
 42 44  1  0
 44 45  1  0
 45 46  1  0
 45 47  1  0
 47 48  2  0
 47 49  1  0
 49 50  1  0
 50 51  1  0
 50 52  1  0
 52 53  2  0
 52 54  1  0
 54 55  1  0
 55 56  1  0
 56 57  1  0
 56 58  2  0
 55 59  1  0
 59 60  1  0
 60 61  1  0
 30  5  1  0
 14  9  1  0
 61 11  1  0
  1 62  1  0
  1 63  1  0
  1 64  1  0
  4 65  1  0
  5 66  1  1
  6 67  1  0
  6 68  1  0
  8 69  1  0
  8 70  1  0
 10 71  1  0
 12 72  1  0
 14 73  1  0
 15 74  1  0
 15 75  1  0
 17 76  1  0
 17 77  1  0
 18 78  1  6
 19 79  1  0
 22 80  1  6
 23 81  1  0
 23 82  1  0
 23 83  1  0
 24 84  1  0
 27 85  1  1
 28 86  1  0
 28 87  1  0
 28 88  1  0
 29 89  1  0
 34 90  1  0
 35 91  1  1
 36 92  1  0
 36 93  1  0
 36 94  1  0
 39 95  1  0
 40 96  1  1
 41 97  1  0
 41 98  1  0
 41 99  1  0
 44100  1  0
 45101  1  1
 46102  1  0
 46103  1  0
 46104  1  0
 49105  1  0
 50106  1  1
 51107  1  0
 51108  1  0
 51109  1  0
 54110  1  0
 55111  1  1
 57112  1  0
 57113  1  0
 59114  1  0
 59115  1  0
 61116  1  0
 61117  1  0
M  END
