
     RDKit          3D

117119  0  0  0  0  0  0  0  0999 V2000
    8.9392   -3.0112   -3.3260 C   0  0  0  0  0  0  0  0  0  0  0  0
    9.1206   -2.2349   -2.0558 C   0  0  0  0  0  0  0  0  0  0  0  0
   10.2679   -1.7926   -1.7717 O   0  0  0  0  0  0  0  0  0  0  0  0
    8.0309   -1.9465   -1.1653 N   0  0  0  0  0  0  0  0  0  0  0  0
    6.6181   -2.1049   -1.5181 C   0  0  1  0  0  0  0  0  0  0  0  0
    5.9507   -3.0904   -0.5501 C   0  0  0  0  0  0  0  0  0  0  0  0
    4.2760   -3.5557   -1.1404 S   0  0  0  0  0  0  0  0  0  0  0  0
    3.6981   -4.3208    0.4269 C   0  0  0  0  0  0  0  0  0  0  0  0
    2.3962   -3.7076    0.8590 C   0  0  0  0  0  0  0  0  0  0  0  0
    2.3099   -2.3272    1.0816 C   0  0  0  0  0  0  0  0  0  0  0  0
    1.1104   -1.7414    1.5084 C   0  0  0  0  0  0  0  0  0  0  0  0
   -0.0030   -2.5533    1.7620 C   0  0  0  0  0  0  0  0  0  0  0  0
    0.0712   -3.9408    1.5675 C   0  0  0  0  0  0  0  0  0  0  0  0
    1.2759   -4.5131    1.1188 C   0  0  0  0  0  0  0  0  0  0  0  0
   -1.0700   -4.8132    2.0116 C   0  0  0  0  0  0  0  0  0  0  0  0
   -1.5694   -6.0028    0.7054 S   0  0  0  0  0  0  0  0  0  0  0  0
   -2.8385   -4.9559   -0.1226 C   0  0  0  0  0  0  0  0  0  0  0  0
   -4.2677   -5.0881    0.4653 C   0  0  1  0  0  0  0  0  0  0  0  0
   -4.6630   -6.5149    0.7568 C   0  0  0  0  0  0  0  0  0  0  0  0
   -5.5109   -7.2246   -0.1467 N   0  0  0  0  0  0  0  0  0  0  0  0
   -4.2410   -7.0956    1.7962 O   0  0  0  0  0  0  0  0  0  0  0  0
   -4.4395   -4.2482    1.6566 N   0  0  0  0  0  0  0  0  0  0  0  0
   -4.8049   -2.8531    1.6245 C   0  0  0  0  0  0  0  0  0  0  0  0
   -4.8090   -2.2062    2.7107 O   0  0  0  0  0  0  0  0  0  0  0  0
   -5.3040   -2.1774    0.3561 C   0  0  1  0  0  0  0  0  0  0  0  0
   -6.8022   -2.4728    0.1860 C   0  0  0  0  0  0  0  0  0  0  0  0
   -5.0889   -0.7208    0.3799 N   0  0  0  0  0  0  0  0  0  0  0  0
   -5.1949    0.0519   -0.8301 C   0  0  0  0  0  0  0  0  0  0  0  0
   -4.7838   -0.4450   -1.9171 O   0  0  0  0  0  0  0  0  0  0  0  0
   -5.9019    1.3823   -0.8551 C   0  0  1  0  0  0  0  0  0  0  0  0
   -7.3835    1.1651   -1.1919 C   0  0  0  0  0  0  0  0  0  0  0  0
   -5.7977    2.0722    0.4389 N   0  0  0  0  0  0  0  0  0  0  0  0
   -5.2316    3.3743    0.6714 C   0  0  0  0  0  0  0  0  0  0  0  0
   -5.1753    3.7837    1.8625 O   0  0  0  0  0  0  0  0  0  0  0  0
   -4.7382    4.2924   -0.4360 C   0  0  1  0  0  0  0  0  0  0  0  0
   -5.9153    4.8315   -1.2572 C   0  0  0  0  0  0  0  0  0  0  0  0
   -4.0252    5.4435    0.1374 N   0  0  0  0  0  0  0  0  0  0  0  0
   -2.7149    5.9109   -0.2247 C   0  0  0  0  0  0  0  0  0  0  0  0
   -2.4164    7.1143    0.0232 O   0  0  0  0  0  0  0  0  0  0  0  0
   -1.6811    5.0352   -0.8900 C   0  0  1  0  0  0  0  0  0  0  0  0
   -1.5966    5.3517   -2.3881 C   0  0  0  0  0  0  0  0  0  0  0  0
   -0.3716    5.2512   -0.2664 N   0  0  0  0  0  0  0  0  0  0  0  0
    0.0647    4.4914    0.8749 C   0  0  0  0  0  0  0  0  0  0  0  0
   -0.0687    4.9856    2.0291 O   0  0  0  0  0  0  0  0  0  0  0  0
    0.7096    3.1306    0.7136 C   0  0  1  0  0  0  0  0  0  0  0  0
   -0.3510    2.0246    0.8936 C   0  0  0  0  0  0  0  0  0  0  0  0
    0.1468    0.4101    0.1849 S   0  0  0  0  0  0  0  0  0  0  0  0
    1.0030   -0.2509    1.6657 C   0  0  0  0  0  0  0  0  0  0  0  0
    1.4009    3.0498   -0.5844 N   0  0  0  0  0  0  0  0  0  0  0  0
    2.5093    3.9029   -0.9153 C   0  0  0  0  0  0  0  0  0  0  0  0
    2.3915    4.6827   -1.8949 O   0  0  0  0  0  0  0  0  0  0  0  0
    3.8335    3.8765   -0.1779 C   0  0  1  0  0  0  0  0  0  0  0  0
    3.7440    4.3955    1.2642 C   0  0  0  0  0  0  0  0  0  0  0  0
    4.4395    2.5382   -0.2008 N   0  0  0  0  0  0  0  0  0  0  0  0
    5.8717    2.3515   -0.1594 C   0  0  0  0  0  0  0  0  0  0  0  0
    6.6311    3.3320   -0.3668 O   0  0  0  0  0  0  0  0  0  0  0  0
    6.5048    1.0364    0.2154 C   0  0  1  0  0  0  0  0  0  0  0  0
    6.6822    0.9578    1.7295 C   0  0  0  0  0  0  0  0  0  0  0  0
    5.6994   -0.0878   -0.2481 N   0  0  0  0  0  0  0  0  0  0  0  0
    5.9536   -0.7507   -1.4928 C   0  0  0  0  0  0  0  0  0  0  0  0
    5.6429   -0.1786   -2.5814 O   0  0  0  0  0  0  0  0  0  0  0  0
    8.3605   -2.3870   -4.0481 H   0  0  0  0  0  0  0  0  0  0  0  0
    8.4031   -3.9543   -3.1210 H   0  0  0  0  0  0  0  0  0  0  0  0
    9.9258   -3.2336   -3.7898 H   0  0  0  0  0  0  0  0  0  0  0  0
    8.2576   -1.5382   -0.2297 H   0  0  0  0  0  0  0  0  0  0  0  0
    6.5130   -2.5137   -2.5453 H   0  0  0  0  0  0  0  0  0  0  0  0
    5.9012   -2.6438    0.4702 H   0  0  0  0  0  0  0  0  0  0  0  0
    6.5574   -4.0176   -0.4827 H   0  0  0  0  0  0  0  0  0  0  0  0
    4.4344   -4.2062    1.2451 H   0  0  0  0  0  0  0  0  0  0  0  0
    3.5824   -5.4105    0.2465 H   0  0  0  0  0  0  0  0  0  0  0  0
    3.1807   -1.7026    0.9295 H   0  0  0  0  0  0  0  0  0  0  0  0
   -0.9233   -2.0963    2.1222 H   0  0  0  0  0  0  0  0  0  0  0  0
    1.3444   -5.5855    1.0173 H   0  0  0  0  0  0  0  0  0  0  0  0
   -1.9403   -4.2035    2.3385 H   0  0  0  0  0  0  0  0  0  0  0  0
   -0.7411   -5.3891    2.9059 H   0  0  0  0  0  0  0  0  0  0  0  0
   -2.5165   -3.8934   -0.1326 H   0  0  0  0  0  0  0  0  0  0  0  0
   -2.8813   -5.3004   -1.1842 H   0  0  0  0  0  0  0  0  0  0  0  0
   -4.9647   -4.7440   -0.3230 H   0  0  0  0  0  0  0  0  0  0  0  0
   -5.8852   -6.7516   -0.9950 H   0  0  0  0  0  0  0  0  0  0  0  0
   -5.8724   -8.1701    0.0992 H   0  0  0  0  0  0  0  0  0  0  0  0
   -4.2100   -4.6437    2.5976 H   0  0  0  0  0  0  0  0  0  0  0  0
   -4.7488   -2.5836   -0.5140 H   0  0  0  0  0  0  0  0  0  0  0  0
   -6.9985   -3.5600    0.2370 H   0  0  0  0  0  0  0  0  0  0  0  0
   -7.1547   -2.1053   -0.7977 H   0  0  0  0  0  0  0  0  0  0  0  0
   -7.3866   -1.9592    0.9842 H   0  0  0  0  0  0  0  0  0  0  0  0
   -4.9164   -0.2210    1.2864 H   0  0  0  0  0  0  0  0  0  0  0  0
   -5.4514    1.9866   -1.6651 H   0  0  0  0  0  0  0  0  0  0  0  0
   -7.8953    2.1465   -1.3034 H   0  0  0  0  0  0  0  0  0  0  0  0
   -7.8745    0.5910   -0.3781 H   0  0  0  0  0  0  0  0  0  0  0  0
   -7.4788    0.6031   -2.1574 H   0  0  0  0  0  0  0  0  0  0  0  0
   -6.2522    1.6118    1.2583 H   0  0  0  0  0  0  0  0  0  0  0  0
   -4.0729    3.7185   -1.1095 H   0  0  0  0  0  0  0  0  0  0  0  0
   -6.6690    5.3150   -0.5980 H   0  0  0  0  0  0  0  0  0  0  0  0
   -6.4202    4.0314   -1.8291 H   0  0  0  0  0  0  0  0  0  0  0  0
   -5.5465    5.5877   -1.9884 H   0  0  0  0  0  0  0  0  0  0  0  0
   -4.5809    6.0789    0.7455 H   0  0  0  0  0  0  0  0  0  0  0  0
   -1.9524    3.9777   -0.7957 H   0  0  0  0  0  0  0  0  0  0  0  0
   -0.8051    4.7395   -2.8679 H   0  0  0  0  0  0  0  0  0  0  0  0
   -1.3546    6.4276   -2.5599 H   0  0  0  0  0  0  0  0  0  0  0  0
   -2.5653    5.1182   -2.8862 H   0  0  0  0  0  0  0  0  0  0  0  0
    0.0888    6.1834   -0.4265 H   0  0  0  0  0  0  0  0  0  0  0  0
    1.4421    2.9782    1.5304 H   0  0  0  0  0  0  0  0  0  0  0  0
   -0.5979    1.9260    1.9829 H   0  0  0  0  0  0  0  0  0  0  0  0
   -1.2992    2.2965    0.3840 H   0  0  0  0  0  0  0  0  0  0  0  0
    0.4392   -0.0206    2.5982 H   0  0  0  0  0  0  0  0  0  0  0  0
    2.0107    0.2196    1.7563 H   0  0  0  0  0  0  0  0  0  0  0  0
    0.8142    2.7582   -1.4021 H   0  0  0  0  0  0  0  0  0  0  0  0
    4.5076    4.5802   -0.7151 H   0  0  0  0  0  0  0  0  0  0  0  0
    2.9960    5.2163    1.3585 H   0  0  0  0  0  0  0  0  0  0  0  0
    3.4990    3.5749    1.9749 H   0  0  0  0  0  0  0  0  0  0  0  0
    4.7392    4.7898    1.5703 H   0  0  0  0  0  0  0  0  0  0  0  0
    3.8108    1.6986   -0.1807 H   0  0  0  0  0  0  0  0  0  0  0  0
    7.5112    0.9810   -0.2520 H   0  0  0  0  0  0  0  0  0  0  0  0
    5.7025    1.0463    2.2389 H   0  0  0  0  0  0  0  0  0  0  0  0
    7.3444    1.7838    2.0706 H   0  0  0  0  0  0  0  0  0  0  0  0
    7.1579   -0.0073    2.0004 H   0  0  0  0  0  0  0  0  0  0  0  0
    4.8982   -0.4228    0.3271 H   0  0  0  0  0  0  0  0  0  0  0  0
  1  2  1  0
  2  3  2  0
  2  4  1  0
  4  5  1  0
  5  6  1  0
  6  7  1  0
  7  8  1  0
  8  9  1  0
  9 10  2  0
 10 11  1  0
 11 12  2  0
 12 13  1  0
 13 14  2  0
 13 15  1  0
 15 16  1  0
 16 17  1  0
 17 18  1  0
 18 19  1  0
 19 20  1  0
 19 21  2  0
 18 22  1  0
 22 23  1  0
 23 24  2  0
 23 25  1  0
 25 26  1  0
 25 27  1  0
 27 28  1  0
 28 29  2  0
 28 30  1  0
 30 31  1  0
 30 32  1  0
 32 33  1  0
 33 34  2  0
 33 35  1  0
 35 36  1  0
 35 37  1  0
 37 38  1  0
 38 39  2  0
 38 40  1  0
 40 41  1  0
 40 42  1  0
 42 43  1  0
 43 44  2  0
 43 45  1  0
 45 46  1  0
 46 47  1  0
 47 48  1  0
 45 49  1  0
 49 50  1  0
 50 51  2  0
 50 52  1  0
 52 53  1  0
 52 54  1  0
 54 55  1  0
 55 56  2  0
 55 57  1  0
 57 58  1  0
 57 59  1  0
 59 60  1  0
 60 61  2  0
 60  5  1  0
 14  9  1  0
 48 11  1  0
  1 62  1  0
  1 63  1  0
  1 64  1  0
  4 65  1  0
  5 66  1  6
  6 67  1  0
  6 68  1  0
  8 69  1  0
  8 70  1  0
 10 71  1  0
 12 72  1  0
 14 73  1  0
 15 74  1  0
 15 75  1  0
 17 76  1  0
 17 77  1  0
 18 78  1  6
 20 79  1  0
 20 80  1  0
 22 81  1  0
 25 82  1  6
 26 83  1  0
 26 84  1  0
 26 85  1  0
 27 86  1  0
 30 87  1  6
 31 88  1  0
 31 89  1  0
 31 90  1  0
 32 91  1  0
 35 92  1  6
 36 93  1  0
 36 94  1  0
 36 95  1  0
 37 96  1  0
 40 97  1  6
 41 98  1  0
 41 99  1  0
 41100  1  0
 42101  1  0
 45102  1  1
 46103  1  0
 46104  1  0
 48105  1  0
 48106  1  0
 49107  1  0
 52108  1  6
 53109  1  0
 53110  1  0
 53111  1  0
 54112  1  0
 57113  1  6
 58114  1  0
 58115  1  0
 58116  1  0
 59117  1  0
M  END
