
     RDKit          3D

127129  0  0  0  0  0  0  0  0999 V2000
    9.7841    3.5131   -1.0596 C   0  0  0  0  0  0  0  0  0  0  0  0
    8.9563    2.3157   -0.7313 C   0  0  0  0  0  0  0  0  0  0  0  0
    9.4593    1.1651   -0.8339 O   0  0  0  0  0  0  0  0  0  0  0  0
    7.5896    2.4799   -0.3256 N   0  0  0  0  0  0  0  0  0  0  0  0
    6.6563    1.3493   -0.2090 C   0  0  1  0  0  0  0  0  0  0  0  0
    5.2874    1.8228    0.3244 C   0  0  0  0  0  0  0  0  0  0  0  0
    4.4896    3.0509   -0.7826 S   0  0  0  0  0  0  0  0  0  0  0  0
    3.2464    3.6502    0.4168 C   0  0  0  0  0  0  0  0  0  0  0  0
    2.0056    2.7946    0.3924 C   0  0  0  0  0  0  0  0  0  0  0  0
    1.1851    2.7629   -0.7485 C   0  0  0  0  0  0  0  0  0  0  0  0
   -0.0243    2.0505   -0.7388 C   0  0  0  0  0  0  0  0  0  0  0  0
   -0.3963    1.3473    0.4146 C   0  0  0  0  0  0  0  0  0  0  0  0
    0.4223    1.3564    1.5521 C   0  0  0  0  0  0  0  0  0  0  0  0
    1.6189    2.0844    1.5351 C   0  0  0  0  0  0  0  0  0  0  0  0
    0.0494    0.5411    2.7583 C   0  0  0  0  0  0  0  0  0  0  0  0
    1.2060   -0.8585    2.9883 S   0  0  0  0  0  0  0  0  0  0  0  0
    0.8114   -1.6985    1.4077 C   0  0  0  0  0  0  0  0  0  0  0  0
    1.5077   -3.0601    1.2501 C   0  0  1  0  0  0  0  0  0  0  0  0
    2.9508   -2.9291    1.4909 N   0  0  0  0  0  0  0  0  0  0  0  0
    3.9735   -3.2925    0.5500 C   0  0  0  0  0  0  0  0  0  0  0  0
    5.0482   -3.7776    0.9974 O   0  0  0  0  0  0  0  0  0  0  0  0
    3.8141   -3.0891   -0.9459 C   0  0  1  0  0  0  0  0  0  0  0  0
    3.4523   -1.6445   -1.3258 C   0  0  0  0  0  0  0  0  0  0  0  0
    4.9975   -3.5534   -1.6852 N   0  0  0  0  0  0  0  0  0  0  0  0
    6.3341   -3.0185   -1.6468 C   0  0  0  0  0  0  0  0  0  0  0  0
    7.2027   -3.5628   -2.3792 O   0  0  0  0  0  0  0  0  0  0  0  0
    6.7510   -1.8179   -0.8173 C   0  0  1  0  0  0  0  0  0  0  0  0
    7.9978   -2.1637    0.0026 C   0  0  0  0  0  0  0  0  0  0  0  0
    7.0513   -0.7021   -1.7192 N   0  0  0  0  0  0  0  0  0  0  0  0
    6.5477    0.6323   -1.5398 C   0  0  0  0  0  0  0  0  0  0  0  0
    6.1474    1.2663   -2.5523 O   0  0  0  0  0  0  0  0  0  0  0  0
    0.9125   -4.0756    2.2059 C   0  0  0  0  0  0  0  0  0  0  0  0
    1.1611   -3.9599    3.4384 O   0  0  0  0  0  0  0  0  0  0  0  0
    0.0360   -5.1474    1.7984 N   0  0  0  0  0  0  0  0  0  0  0  0
   -0.2180   -5.6416    0.4376 C   0  0  2  0  0  0  0  0  0  0  0  0
    1.0533   -6.2421   -0.1745 C   0  0  0  0  0  0  0  0  0  0  0  0
   -0.8791   -4.5848   -0.4239 C   0  0  0  0  0  0  0  0  0  0  0  0
   -0.4396   -4.3503   -1.5806 O   0  0  0  0  0  0  0  0  0  0  0  0
   -1.9528   -3.7753    0.0851 N   0  0  0  0  0  0  0  0  0  0  0  0
   -3.3387   -4.2305    0.2655 C   0  0  2  0  0  0  0  0  0  0  0  0
   -3.4474   -5.5698    0.9933 C   0  0  0  0  0  0  0  0  0  0  0  0
   -4.0391   -4.2857   -1.0778 C   0  0  0  0  0  0  0  0  0  0  0  0
   -3.6634   -5.1517   -1.9140 O   0  0  0  0  0  0  0  0  0  0  0  0
   -5.1154   -3.4021   -1.4435 N   0  0  0  0  0  0  0  0  0  0  0  0
   -5.6089   -2.2901   -0.6209 C   0  0  2  0  0  0  0  0  0  0  0  0
   -6.6569   -2.8002    0.3725 C   0  0  0  0  0  0  0  0  0  0  0  0
   -6.1824   -1.2165   -1.5043 C   0  0  0  0  0  0  0  0  0  0  0  0
   -7.2548   -1.4133   -2.1326 O   0  0  0  0  0  0  0  0  0  0  0  0
   -5.4500   -0.0056   -1.7152 N   0  0  0  0  0  0  0  0  0  0  0  0
   -5.6740    1.2244   -0.9420 C   0  0  2  0  0  0  0  0  0  0  0  0
   -5.9140    0.9241    0.5461 C   0  0  0  0  0  0  0  0  0  0  0  0
   -6.8101    2.0341   -1.5233 C   0  0  0  0  0  0  0  0  0  0  0  0
   -7.5748    1.4999   -2.3713 O   0  0  0  0  0  0  0  0  0  0  0  0
   -7.0804    3.3887   -1.1225 N   0  0  0  0  0  0  0  0  0  0  0  0
   -6.1328    4.2916   -0.4553 C   0  0  2  0  0  0  0  0  0  0  0  0
   -6.8456    4.9892    0.7075 C   0  0  0  0  0  0  0  0  0  0  0  0
   -5.6210    5.2957   -1.4573 C   0  0  0  0  0  0  0  0  0  0  0  0
   -6.4528    6.0262   -2.0693 O   0  0  0  0  0  0  0  0  0  0  0  0
   -4.2228    5.3894   -1.8057 N   0  0  0  0  0  0  0  0  0  0  0  0
   -3.0965    5.4378   -0.8611 C   0  0  1  0  0  0  0  0  0  0  0  0
   -3.5118    5.9516    0.4944 C   0  0  0  0  0  0  0  0  0  0  0  0
   -4.0115    7.2826    0.6254 N   0  0  0  0  0  0  0  0  0  0  0  0
   -3.4061    5.2247    1.5210 O   0  0  0  0  0  0  0  0  0  0  0  0
   -2.3770    4.0814   -0.8007 C   0  0  0  0  0  0  0  0  0  0  0  0
   -1.4848    3.7538   -2.3682 S   0  0  0  0  0  0  0  0  0  0  0  0
   -0.9299    2.0619   -1.9454 C   0  0  0  0  0  0  0  0  0  0  0  0
    9.8517    4.1746   -0.1689 H   0  0  0  0  0  0  0  0  0  0  0  0
   10.8138    3.2147   -1.3623 H   0  0  0  0  0  0  0  0  0  0  0  0
    9.3085    4.0770   -1.8915 H   0  0  0  0  0  0  0  0  0  0  0  0
    7.2708    3.4413   -0.0848 H   0  0  0  0  0  0  0  0  0  0  0  0
    7.0666    0.6481    0.5444 H   0  0  0  0  0  0  0  0  0  0  0  0
    4.6063    0.9595    0.4684 H   0  0  0  0  0  0  0  0  0  0  0  0
    5.4531    2.2767    1.3236 H   0  0  0  0  0  0  0  0  0  0  0  0
    3.6851    3.7086    1.4333 H   0  0  0  0  0  0  0  0  0  0  0  0
    2.9700    4.6919    0.1381 H   0  0  0  0  0  0  0  0  0  0  0  0
    1.4714    3.3239   -1.6318 H   0  0  0  0  0  0  0  0  0  0  0  0
   -1.3215    0.7873    0.4256 H   0  0  0  0  0  0  0  0  0  0  0  0
    2.2477    2.0991    2.4160 H   0  0  0  0  0  0  0  0  0  0  0  0
   -0.9876    0.1470    2.6747 H   0  0  0  0  0  0  0  0  0  0  0  0
    0.0844    1.1890    3.6596 H   0  0  0  0  0  0  0  0  0  0  0  0
    1.1302   -1.0452    0.5769 H   0  0  0  0  0  0  0  0  0  0  0  0
   -0.2847   -1.8349    1.3340 H   0  0  0  0  0  0  0  0  0  0  0  0
    1.3276   -3.3775    0.2138 H   0  0  0  0  0  0  0  0  0  0  0  0
    3.2677   -2.7339    2.4685 H   0  0  0  0  0  0  0  0  0  0  0  0
    2.9664   -3.7233   -1.2778 H   0  0  0  0  0  0  0  0  0  0  0  0
    3.8692   -0.9119   -0.6088 H   0  0  0  0  0  0  0  0  0  0  0  0
    2.3493   -1.5188   -1.3344 H   0  0  0  0  0  0  0  0  0  0  0  0
    3.8173   -1.3979   -2.3447 H   0  0  0  0  0  0  0  0  0  0  0  0
    4.8468   -4.3727   -2.3132 H   0  0  0  0  0  0  0  0  0  0  0  0
    5.9645   -1.5269   -0.0994 H   0  0  0  0  0  0  0  0  0  0  0  0
    8.3227   -1.2980    0.6161 H   0  0  0  0  0  0  0  0  0  0  0  0
    8.8359   -2.4536   -0.6640 H   0  0  0  0  0  0  0  0  0  0  0  0
    7.7782   -3.0056    0.6951 H   0  0  0  0  0  0  0  0  0  0  0  0
    7.5956   -0.8942   -2.5875 H   0  0  0  0  0  0  0  0  0  0  0  0
   -0.4253   -5.6830    2.5719 H   0  0  0  0  0  0  0  0  0  0  0  0
   -0.9234   -6.4908    0.5129 H   0  0  0  0  0  0  0  0  0  0  0  0
    1.4618   -7.0250    0.5028 H   0  0  0  0  0  0  0  0  0  0  0  0
    0.8134   -6.7243   -1.1495 H   0  0  0  0  0  0  0  0  0  0  0  0
    1.8366   -5.4826   -0.3392 H   0  0  0  0  0  0  0  0  0  0  0  0
   -1.8641   -2.7557   -0.1260 H   0  0  0  0  0  0  0  0  0  0  0  0
   -3.8265   -3.4994    0.9371 H   0  0  0  0  0  0  0  0  0  0  0  0
   -3.1433   -6.4174    0.3409 H   0  0  0  0  0  0  0  0  0  0  0  0
   -2.8308   -5.5610    1.9144 H   0  0  0  0  0  0  0  0  0  0  0  0
   -4.5034   -5.7436    1.2934 H   0  0  0  0  0  0  0  0  0  0  0  0
   -5.5965   -3.5920   -2.3512 H   0  0  0  0  0  0  0  0  0  0  0  0
   -4.7662   -1.8335   -0.0649 H   0  0  0  0  0  0  0  0  0  0  0  0
   -7.5220   -3.2440   -0.1666 H   0  0  0  0  0  0  0  0  0  0  0  0
   -7.0260   -1.9756    1.0155 H   0  0  0  0  0  0  0  0  0  0  0  0
   -6.2228   -3.5813    1.0257 H   0  0  0  0  0  0  0  0  0  0  0  0
   -4.9829    0.0992   -2.6438 H   0  0  0  0  0  0  0  0  0  0  0  0
   -4.7441    1.8144   -1.0260 H   0  0  0  0  0  0  0  0  0  0  0  0
   -6.8747    0.3827    0.6836 H   0  0  0  0  0  0  0  0  0  0  0  0
   -5.9618    1.8597    1.1358 H   0  0  0  0  0  0  0  0  0  0  0  0
   -5.0844    0.3110    0.9528 H   0  0  0  0  0  0  0  0  0  0  0  0
   -7.9794    3.8069   -1.4573 H   0  0  0  0  0  0  0  0  0  0  0  0
   -5.2866    3.7300   -0.0295 H   0  0  0  0  0  0  0  0  0  0  0  0
   -7.6907    5.6084    0.3337 H   0  0  0  0  0  0  0  0  0  0  0  0
   -7.2497    4.2252    1.4045 H   0  0  0  0  0  0  0  0  0  0  0  0
   -6.1480    5.6375    1.2724 H   0  0  0  0  0  0  0  0  0  0  0  0
   -4.0056    5.5801   -2.8160 H   0  0  0  0  0  0  0  0  0  0  0  0
   -2.3626    6.1797   -1.2434 H   0  0  0  0  0  0  0  0  0  0  0  0
   -4.0678    7.9117   -0.2028 H   0  0  0  0  0  0  0  0  0  0  0  0
   -4.3005    7.6473    1.5632 H   0  0  0  0  0  0  0  0  0  0  0  0
   -3.0941    3.2700   -0.6025 H   0  0  0  0  0  0  0  0  0  0  0  0
   -1.6322    4.0977    0.0215 H   0  0  0  0  0  0  0  0  0  0  0  0
   -1.8268    1.4198   -1.7889 H   0  0  0  0  0  0  0  0  0  0  0  0
   -0.3706    1.6548   -2.8129 H   0  0  0  0  0  0  0  0  0  0  0  0
  1  2  1  0
  2  3  2  0
  2  4  1  0
  4  5  1  0
  5  6  1  0
  6  7  1  0
  7  8  1  0
  8  9  1  0
  9 10  2  0
 10 11  1  0
 11 12  2  0
 12 13  1  0
 13 14  2  0
 13 15  1  0
 15 16  1  0
 16 17  1  0
 17 18  1  0
 18 19  1  0
 19 20  1  0
 20 21  2  0
 20 22  1  0
 22 23  1  0
 22 24  1  0
 24 25  1  0
 25 26  2  0
 25 27  1  0
 27 28  1  0
 27 29  1  0
 29 30  1  0
 30 31  2  0
 18 32  1  0
 32 33  2  0
 32 34  1  0
 34 35  1  0
 35 36  1  0
 35 37  1  0
 37 38  2  0
 37 39  1  0
 39 40  1  0
 40 41  1  0
 40 42  1  0
 42 43  2  0
 42 44  1  0
 44 45  1  0
 45 46  1  0
 45 47  1  0
 47 48  2  0
 47 49  1  0
 49 50  1  0
 50 51  1  0
 50 52  1  0
 52 53  2  0
 52 54  1  0
 54 55  1  0
 55 56  1  0
 55 57  1  0
 57 58  2  0
 57 59  1  0
 59 60  1  0
 60 61  1  0
 61 62  1  0
 61 63  2  0
 60 64  1  0
 64 65  1  0
 65 66  1  0
 30  5  1  0
 14  9  1  0
 66 11  1  0
  1 67  1  0
  1 68  1  0
  1 69  1  0
  4 70  1  0
  5 71  1  1
  6 72  1  0
  6 73  1  0
  8 74  1  0
  8 75  1  0
 10 76  1  0
 12 77  1  0
 14 78  1  0
 15 79  1  0
 15 80  1  0
 17 81  1  0
 17 82  1  0
 18 83  1  6
 19 84  1  0
 22 85  1  6
 23 86  1  0
 23 87  1  0
 23 88  1  0
 24 89  1  0
 27 90  1  1
 28 91  1  0
 28 92  1  0
 28 93  1  0
 29 94  1  0
 34 95  1  0
 35 96  1  1
 36 97  1  0
 36 98  1  0
 36 99  1  0
 39100  1  0
 40101  1  1
 41102  1  0
 41103  1  0
 41104  1  0
 44105  1  0
 45106  1  1
 46107  1  0
 46108  1  0
 46109  1  0
 49110  1  0
 50111  1  1
 51112  1  0
 51113  1  0
 51114  1  0
 54115  1  0
 55116  1  1
 56117  1  0
 56118  1  0
 56119  1  0
 59120  1  0
 60121  1  6
 62122  1  0
 62123  1  0
 64124  1  0
 64125  1  0
 66126  1  0
 66127  1  0
M  END
