
     RDKit          3D

127129  0  0  0  0  0  0  0  0999 V2000
   -8.2801    2.9663    2.6284 C   0  0  0  0  0  0  0  0  0  0  0  0
   -7.9508    2.9433    1.1701 C   0  0  0  0  0  0  0  0  0  0  0  0
   -8.8899    3.0531    0.3345 O   0  0  0  0  0  0  0  0  0  0  0  0
   -6.5870    2.7891    0.7338 N   0  0  0  0  0  0  0  0  0  0  0  0
   -6.1898    2.4486   -0.6429 C   0  0  2  0  0  0  0  0  0  0  0  0
   -6.4401    3.6181   -1.6124 C   0  0  0  0  0  0  0  0  0  0  0  0
   -5.4638    5.0976   -1.1343 S   0  0  0  0  0  0  0  0  0  0  0  0
   -4.0337    4.8166   -2.2493 C   0  0  0  0  0  0  0  0  0  0  0  0
   -2.9924    3.9606   -1.5821 C   0  0  0  0  0  0  0  0  0  0  0  0
   -2.7617    2.6473   -2.0249 C   0  0  0  0  0  0  0  0  0  0  0  0
   -1.7668    1.8616   -1.4194 C   0  0  0  0  0  0  0  0  0  0  0  0
   -0.9858    2.4061   -0.3847 C   0  0  0  0  0  0  0  0  0  0  0  0
   -1.2253    3.7121    0.0814 C   0  0  0  0  0  0  0  0  0  0  0  0
   -2.2363    4.4753   -0.5246 C   0  0  0  0  0  0  0  0  0  0  0  0
   -0.3960    4.3848    1.1620 C   0  0  0  0  0  0  0  0  0  0  0  0
    0.8509    3.2982    1.9675 S   0  0  0  0  0  0  0  0  0  0  0  0
    2.2409    4.4942    1.9628 C   0  0  0  0  0  0  0  0  0  0  0  0
    3.1824    4.2592    0.7656 C   0  0  1  0  0  0  0  0  0  0  0  0
    2.4821    4.4582   -0.5504 C   0  0  0  0  0  0  0  0  0  0  0  0
    2.0938    5.7622   -0.9912 N   0  0  0  0  0  0  0  0  0  0  0  0
    2.2349    3.4580   -1.2778 O   0  0  0  0  0  0  0  0  0  0  0  0
    4.3388    5.1540    0.8619 N   0  0  0  0  0  0  0  0  0  0  0  0
    5.4803    4.9651    0.0248 C   0  0  0  0  0  0  0  0  0  0  0  0
    5.5844    5.6466   -1.0266 O   0  0  0  0  0  0  0  0  0  0  0  0
    6.6055    4.0552    0.4362 C   0  0  1  0  0  0  0  0  0  0  0  0
    7.3915    4.6762    1.5925 C   0  0  0  0  0  0  0  0  0  0  0  0
    6.0965    2.7399    0.8186 N   0  0  0  0  0  0  0  0  0  0  0  0
    5.9281    1.7050   -0.1496 C   0  0  0  0  0  0  0  0  0  0  0  0
    5.1091    1.8665   -1.0956 O   0  0  0  0  0  0  0  0  0  0  0  0
    6.7652    0.4553   -0.0918 C   0  0  1  0  0  0  0  0  0  0  0  0
    8.2418    0.8236   -0.2631 C   0  0  0  0  0  0  0  0  0  0  0  0
    6.5589   -0.2571    1.1771 N   0  0  0  0  0  0  0  0  0  0  0  0
    6.8605   -1.6488    1.3818 C   0  0  0  0  0  0  0  0  0  0  0  0
    6.7797   -2.1135    2.5514 O   0  0  0  0  0  0  0  0  0  0  0  0
    7.1587   -2.5858    0.2333 C   0  0  1  0  0  0  0  0  0  0  0  0
    8.0968   -3.7404    0.6170 C   0  0  0  0  0  0  0  0  0  0  0  0
    5.9044   -3.0588   -0.3628 N   0  0  0  0  0  0  0  0  0  0  0  0
    5.0075   -4.0008    0.2457 C   0  0  0  0  0  0  0  0  0  0  0  0
    5.3301   -4.6060    1.3032 O   0  0  0  0  0  0  0  0  0  0  0  0
    3.6773   -4.2800   -0.4004 C   0  0  1  0  0  0  0  0  0  0  0  0
    3.8635   -4.9684   -1.7547 C   0  0  0  0  0  0  0  0  0  0  0  0
    2.8363   -5.1149    0.4633 N   0  0  0  0  0  0  0  0  0  0  0  0
    1.6205   -4.6151    1.0354 C   0  0  0  0  0  0  0  0  0  0  0  0
    1.5017   -3.3945    1.2903 O   0  0  0  0  0  0  0  0  0  0  0  0
    0.4348   -5.5456    1.1240 C   0  0  1  0  0  0  0  0  0  0  0  0
   -0.5612   -5.1975    2.2409 C   0  0  0  0  0  0  0  0  0  0  0  0
   -0.2096   -5.6817   -0.1896 N   0  0  0  0  0  0  0  0  0  0  0  0
   -0.7158   -4.6132   -1.0092 C   0  0  0  0  0  0  0  0  0  0  0  0
   -0.8067   -4.7971   -2.2587 O   0  0  0  0  0  0  0  0  0  0  0  0
   -1.3812   -3.3922   -0.4075 C   0  0  1  0  0  0  0  0  0  0  0  0
   -1.5288   -2.2341   -1.4099 C   0  0  0  0  0  0  0  0  0  0  0  0
   -2.0239   -0.7031   -0.5317 S   0  0  0  0  0  0  0  0  0  0  0  0
   -1.5419    0.4434   -1.8674 C   0  0  0  0  0  0  0  0  0  0  0  0
   -2.6861   -3.7295    0.1816 N   0  0  0  0  0  0  0  0  0  0  0  0
   -3.5967   -4.6949   -0.3711 C   0  0  0  0  0  0  0  0  0  0  0  0
   -3.1926   -5.8574   -0.6595 O   0  0  0  0  0  0  0  0  0  0  0  0
   -5.0790   -4.4145   -0.4384 C   0  0  1  0  0  0  0  0  0  0  0  0
   -5.7423   -4.8684    0.8687 C   0  0  0  0  0  0  0  0  0  0  0  0
   -5.3485   -2.9957   -0.6842 N   0  0  0  0  0  0  0  0  0  0  0  0
   -6.6838   -2.4961   -0.8078 C   0  0  0  0  0  0  0  0  0  0  0  0
   -7.5673   -3.1997   -1.3613 O   0  0  0  0  0  0  0  0  0  0  0  0
   -7.0586   -1.1681   -0.2152 C   0  0  1  0  0  0  0  0  0  0  0  0
   -6.8251   -1.1760    1.2948 C   0  0  0  0  0  0  0  0  0  0  0  0
   -6.2846   -0.0855   -0.8270 N   0  0  0  0  0  0  0  0  0  0  0  0
   -6.8911    1.1853   -1.0846 C   0  0  0  0  0  0  0  0  0  0  0  0
   -8.0459    1.2415   -1.5858 O   0  0  0  0  0  0  0  0  0  0  0  0
   -7.3637    2.8674    3.2501 H   0  0  0  0  0  0  0  0  0  0  0  0
   -8.7766    3.9268    2.8748 H   0  0  0  0  0  0  0  0  0  0  0  0
   -8.9669    2.1260    2.8680 H   0  0  0  0  0  0  0  0  0  0  0  0
   -5.8332    2.8054    1.4591 H   0  0  0  0  0  0  0  0  0  0  0  0
   -5.0980    2.2406   -0.6430 H   0  0  0  0  0  0  0  0  0  0  0  0
   -6.2058    3.2988   -2.6506 H   0  0  0  0  0  0  0  0  0  0  0  0
   -7.5107    3.9066   -1.6045 H   0  0  0  0  0  0  0  0  0  0  0  0
   -3.5811    5.8024   -2.4829 H   0  0  0  0  0  0  0  0  0  0  0  0
   -4.3500    4.3955   -3.2240 H   0  0  0  0  0  0  0  0  0  0  0  0
   -3.3552    2.2405   -2.8328 H   0  0  0  0  0  0  0  0  0  0  0  0
   -0.2159    1.7889    0.0575 H   0  0  0  0  0  0  0  0  0  0  0  0
   -2.4165    5.4947   -0.1933 H   0  0  0  0  0  0  0  0  0  0  0  0
    0.0773    5.2836    0.7094 H   0  0  0  0  0  0  0  0  0  0  0  0
   -1.0773    4.7447    1.9652 H   0  0  0  0  0  0  0  0  0  0  0  0
    2.8190    4.3259    2.8997 H   0  0  0  0  0  0  0  0  0  0  0  0
    1.8844    5.5472    1.9968 H   0  0  0  0  0  0  0  0  0  0  0  0
    3.5267    3.2055    0.8354 H   0  0  0  0  0  0  0  0  0  0  0  0
    2.3551    6.6134   -0.4405 H   0  0  0  0  0  0  0  0  0  0  0  0
    1.4600    5.8571   -1.8136 H   0  0  0  0  0  0  0  0  0  0  0  0
    4.1724    6.1276    1.1965 H   0  0  0  0  0  0  0  0  0  0  0  0
    7.3004    3.9349   -0.4241 H   0  0  0  0  0  0  0  0  0  0  0  0
    6.7452    4.8005    2.4874 H   0  0  0  0  0  0  0  0  0  0  0  0
    8.2489    4.0182    1.8547 H   0  0  0  0  0  0  0  0  0  0  0  0
    7.7902    5.6700    1.2971 H   0  0  0  0  0  0  0  0  0  0  0  0
    5.7956    2.5651    1.8073 H   0  0  0  0  0  0  0  0  0  0  0  0
    6.4513   -0.1938   -0.9391 H   0  0  0  0  0  0  0  0  0  0  0  0
    8.8770   -0.0863   -0.2514 H   0  0  0  0  0  0  0  0  0  0  0  0
    8.3994    1.3439   -1.2273 H   0  0  0  0  0  0  0  0  0  0  0  0
    8.5788    1.4869    0.5641 H   0  0  0  0  0  0  0  0  0  0  0  0
    6.2786    0.2922    2.0237 H   0  0  0  0  0  0  0  0  0  0  0  0
    7.7089   -2.0273   -0.5489 H   0  0  0  0  0  0  0  0  0  0  0  0
    9.1184   -3.3506    0.8154 H   0  0  0  0  0  0  0  0  0  0  0  0
    8.1595   -4.4627   -0.2192 H   0  0  0  0  0  0  0  0  0  0  0  0
    7.7530   -4.2810    1.5233 H   0  0  0  0  0  0  0  0  0  0  0  0
    5.5171   -2.4794   -1.1365 H   0  0  0  0  0  0  0  0  0  0  0  0
    3.1819   -3.3029   -0.5891 H   0  0  0  0  0  0  0  0  0  0  0  0
    4.4629   -5.8954   -1.6337 H   0  0  0  0  0  0  0  0  0  0  0  0
    2.8749   -5.2360   -2.1835 H   0  0  0  0  0  0  0  0  0  0  0  0
    4.3865   -4.2950   -2.4666 H   0  0  0  0  0  0  0  0  0  0  0  0
    3.0135   -6.1410    0.4786 H   0  0  0  0  0  0  0  0  0  0  0  0
    0.8309   -6.5459    1.4005 H   0  0  0  0  0  0  0  0  0  0  0  0
   -0.1004   -5.3973    3.2275 H   0  0  0  0  0  0  0  0  0  0  0  0
   -0.8661   -4.1347    2.2348 H   0  0  0  0  0  0  0  0  0  0  0  0
   -1.4724   -5.8293    2.1394 H   0  0  0  0  0  0  0  0  0  0  0  0
   -0.1579   -6.6228   -0.6368 H   0  0  0  0  0  0  0  0  0  0  0  0
   -0.7263   -3.0047    0.3889 H   0  0  0  0  0  0  0  0  0  0  0  0
   -0.5522   -2.0664   -1.9132 H   0  0  0  0  0  0  0  0  0  0  0  0
   -2.2928   -2.4770   -2.1789 H   0  0  0  0  0  0  0  0  0  0  0  0
   -0.4653    0.3047   -2.1033 H   0  0  0  0  0  0  0  0  0  0  0  0
   -2.1286    0.2129   -2.7802 H   0  0  0  0  0  0  0  0  0  0  0  0
   -3.0513   -3.0998    0.9317 H   0  0  0  0  0  0  0  0  0  0  0  0
   -5.5049   -5.0050   -1.2819 H   0  0  0  0  0  0  0  0  0  0  0  0
   -6.8383   -4.6967    0.8385 H   0  0  0  0  0  0  0  0  0  0  0  0
   -5.3160   -4.3092    1.7291 H   0  0  0  0  0  0  0  0  0  0  0  0
   -5.5710   -5.9537    1.0247 H   0  0  0  0  0  0  0  0  0  0  0  0
   -4.5606   -2.3108   -0.7399 H   0  0  0  0  0  0  0  0  0  0  0  0
   -8.1465   -0.9977   -0.3920 H   0  0  0  0  0  0  0  0  0  0  0  0
   -5.7631   -1.3787    1.5326 H   0  0  0  0  0  0  0  0  0  0  0  0
   -7.4556   -1.9543    1.7741 H   0  0  0  0  0  0  0  0  0  0  0  0
   -7.0952   -0.1868    1.7227 H   0  0  0  0  0  0  0  0  0  0  0  0
   -5.2386   -0.1391   -0.8752 H   0  0  0  0  0  0  0  0  0  0  0  0
  1  2  1  0
  2  3  2  0
  2  4  1  0
  4  5  1  0
  5  6  1  0
  6  7  1  0
  7  8  1  0
  8  9  1  0
  9 10  2  0
 10 11  1  0
 11 12  2  0
 12 13  1  0
 13 14  2  0
 13 15  1  0
 15 16  1  0
 16 17  1  0
 17 18  1  0
 18 19  1  0
 19 20  1  0
 19 21  2  0
 18 22  1  0
 22 23  1  0
 23 24  2  0
 23 25  1  0
 25 26  1  0
 25 27  1  0
 27 28  1  0
 28 29  2  0
 28 30  1  0
 30 31  1  0
 30 32  1  0
 32 33  1  0
 33 34  2  0
 33 35  1  0
 35 36  1  0
 35 37  1  0
 37 38  1  0
 38 39  2  0
 38 40  1  0
 40 41  1  0
 40 42  1  0
 42 43  1  0
 43 44  2  0
 43 45  1  0
 45 46  1  0
 45 47  1  0
 47 48  1  0
 48 49  2  0
 48 50  1  0
 50 51  1  0
 51 52  1  0
 52 53  1  0
 50 54  1  0
 54 55  1  0
 55 56  2  0
 55 57  1  0
 57 58  1  0
 57 59  1  0
 59 60  1  0
 60 61  2  0
 60 62  1  0
 62 63  1  0
 62 64  1  0
 64 65  1  0
 65 66  2  0
 65  5  1  0
 14  9  1  0
 53 11  1  0
  1 67  1  0
  1 68  1  0
  1 69  1  0
  4 70  1  0
  5 71  1  1
  6 72  1  0
  6 73  1  0
  8 74  1  0
  8 75  1  0
 10 76  1  0
 12 77  1  0
 14 78  1  0
 15 79  1  0
 15 80  1  0
 17 81  1  0
 17 82  1  0
 18 83  1  6
 20 84  1  0
 20 85  1  0
 22 86  1  0
 25 87  1  6
 26 88  1  0
 26 89  1  0
 26 90  1  0
 27 91  1  0
 30 92  1  6
 31 93  1  0
 31 94  1  0
 31 95  1  0
 32 96  1  0
 35 97  1  6
 36 98  1  0
 36 99  1  0
 36100  1  0
 37101  1  0
 40102  1  6
 41103  1  0
 41104  1  0
 41105  1  0
 42106  1  0
 45107  1  1
 46108  1  0
 46109  1  0
 46110  1  0
 47111  1  0
 50112  1  1
 51113  1  0
 51114  1  0
 53115  1  0
 53116  1  0
 54117  1  0
 57118  1  6
 58119  1  0
 58120  1  0
 58121  1  0
 59122  1  0
 62123  1  1
 63124  1  0
 63125  1  0
 63126  1  0
 64127  1  0
M  END
