
     RDKit          3D

127129  0  0  0  0  0  0  0  0999 V2000
    6.7480    2.1924    1.8509 C   0  0  0  0  0  0  0  0  0  0  0  0
    7.9544    2.1148    0.9606 C   0  0  0  0  0  0  0  0  0  0  0  0
    9.0954    2.1559    1.4877 O   0  0  0  0  0  0  0  0  0  0  0  0
    7.8531    1.9543   -0.4679 N   0  0  0  0  0  0  0  0  0  0  0  0
    6.6007    1.7950   -1.2144 C   0  0  1  0  0  0  0  0  0  0  0  0
    6.2764    3.1059   -1.9718 C   0  0  0  0  0  0  0  0  0  0  0  0
    5.8777    4.4807   -0.8248 S   0  0  0  0  0  0  0  0  0  0  0  0
    4.1980    4.8812   -1.4430 C   0  0  0  0  0  0  0  0  0  0  0  0
    3.1515    4.1477   -0.6468 C   0  0  0  0  0  0  0  0  0  0  0  0
    3.0302    2.7565   -0.7532 C   0  0  0  0  0  0  0  0  0  0  0  0
    2.1218    2.0530    0.0492 C   0  0  0  0  0  0  0  0  0  0  0  0
    1.2912    2.7562    0.9342 C   0  0  0  0  0  0  0  0  0  0  0  0
    1.3305    4.1593    0.9826 C   0  0  0  0  0  0  0  0  0  0  0  0
    2.2881    4.8444    0.2125 C   0  0  0  0  0  0  0  0  0  0  0  0
    0.4101    4.9360    1.8937 C   0  0  0  0  0  0  0  0  0  0  0  0
   -1.3148    4.3212    1.8366 S   0  0  0  0  0  0  0  0  0  0  0  0
   -1.6503    4.7017    0.0722 C   0  0  0  0  0  0  0  0  0  0  0  0
   -2.7603    5.7681   -0.0647 C   0  0  1  0  0  0  0  0  0  0  0  0
   -2.6544    6.4327   -1.4148 C   0  0  0  0  0  0  0  0  0  0  0  0
   -2.9079    5.6926   -2.6097 N   0  0  0  0  0  0  0  0  0  0  0  0
   -2.3184    7.6432   -1.4919 O   0  0  0  0  0  0  0  0  0  0  0  0
   -4.1328    5.2591    0.1105 N   0  0  0  0  0  0  0  0  0  0  0  0
   -4.5199    3.8804    0.2167 C   0  0  0  0  0  0  0  0  0  0  0  0
   -3.9625    3.1225    1.0602 O   0  0  0  0  0  0  0  0  0  0  0  0
   -5.6496    3.3486   -0.6193 C   0  0  1  0  0  0  0  0  0  0  0  0
   -5.1275    2.2212   -1.5250 C   0  0  0  0  0  0  0  0  0  0  0  0
   -6.7428    2.9125    0.2610 N   0  0  0  0  0  0  0  0  0  0  0  0
   -7.4962    1.7078    0.0648 C   0  0  0  0  0  0  0  0  0  0  0  0
   -8.3632    1.6677   -0.8523 O   0  0  0  0  0  0  0  0  0  0  0  0
   -7.1869    0.4700    0.8770 C   0  0  1  0  0  0  0  0  0  0  0  0
   -6.8226    0.8240    2.3248 C   0  0  0  0  0  0  0  0  0  0  0  0
   -8.3378   -0.4420    0.8809 N   0  0  0  0  0  0  0  0  0  0  0  0
   -8.2507   -1.8733    0.9839 C   0  0  0  0  0  0  0  0  0  0  0  0
   -9.3191   -2.5382    1.0092 O   0  0  0  0  0  0  0  0  0  0  0  0
   -6.9269   -2.6103    0.9894 C   0  0  1  0  0  0  0  0  0  0  0  0
   -7.0183   -3.8940    1.8265 C   0  0  0  0  0  0  0  0  0  0  0  0
   -6.5235   -2.9196   -0.3853 N   0  0  0  0  0  0  0  0  0  0  0  0
   -5.1660   -3.2373   -0.7175 C   0  0  0  0  0  0  0  0  0  0  0  0
   -4.4391   -2.3522   -1.2345 O   0  0  0  0  0  0  0  0  0  0  0  0
   -4.6485   -4.6459   -0.5385 C   0  0  1  0  0  0  0  0  0  0  0  0
   -4.3175   -5.3116   -1.8822 C   0  0  0  0  0  0  0  0  0  0  0  0
   -3.5010   -4.6815    0.3830 N   0  0  0  0  0  0  0  0  0  0  0  0
   -2.1582   -4.3208    0.0086 C   0  0  0  0  0  0  0  0  0  0  0  0
   -1.9608   -3.4209   -0.8512 O   0  0  0  0  0  0  0  0  0  0  0  0
   -0.9857   -5.0327    0.6317 C   0  0  1  0  0  0  0  0  0  0  0  0
   -0.1117   -5.7231   -0.4205 C   0  0  0  0  0  0  0  0  0  0  0  0
   -0.2294   -4.1541    1.5350 N   0  0  0  0  0  0  0  0  0  0  0  0
    0.3904   -2.8945    1.2038 C   0  0  0  0  0  0  0  0  0  0  0  0
    0.2057   -1.9172    1.9754 O   0  0  0  0  0  0  0  0  0  0  0  0
    1.3989   -2.7496    0.0788 C   0  0  1  0  0  0  0  0  0  0  0  0
    0.9457   -1.7451   -1.0086 C   0  0  0  0  0  0  0  0  0  0  0  0
    0.4344   -0.0907   -0.3884 S   0  0  0  0  0  0  0  0  0  0  0  0
    2.1010    0.5510    0.0071 C   0  0  0  0  0  0  0  0  0  0  0  0
    2.7393   -2.4192    0.5787 N   0  0  0  0  0  0  0  0  0  0  0  0
    3.3958   -3.2469    1.5471 C   0  0  0  0  0  0  0  0  0  0  0  0
    2.8502   -3.4534    2.6652 O   0  0  0  0  0  0  0  0  0  0  0  0
    4.7257   -3.8944    1.2392 C   0  0  1  0  0  0  0  0  0  0  0  0
    4.5865   -4.9357    0.1179 C   0  0  0  0  0  0  0  0  0  0  0  0
    5.7622   -2.8810    0.9791 N   0  0  0  0  0  0  0  0  0  0  0  0
    6.0552   -2.2666   -0.2958 C   0  0  0  0  0  0  0  0  0  0  0  0
    5.4311   -2.6150   -1.3358 O   0  0  0  0  0  0  0  0  0  0  0  0
    7.1185   -1.2001   -0.3890 C   0  0  1  0  0  0  0  0  0  0  0  0
    8.4876   -1.7555    0.0070 C   0  0  0  0  0  0  0  0  0  0  0  0
    7.1950   -0.6738   -1.7546 N   0  0  0  0  0  0  0  0  0  0  0  0
    6.7277    0.6190   -2.1726 C   0  0  0  0  0  0  0  0  0  0  0  0
    6.4022    0.7638   -3.3866 O   0  0  0  0  0  0  0  0  0  0  0  0
    6.1411    3.0795    1.5909 H   0  0  0  0  0  0  0  0  0  0  0  0
    6.1322    1.2778    1.7572 H   0  0  0  0  0  0  0  0  0  0  0  0
    7.0636    2.2905    2.9120 H   0  0  0  0  0  0  0  0  0  0  0  0
    8.7441    1.9690   -1.0226 H   0  0  0  0  0  0  0  0  0  0  0  0
    5.7618    1.5662   -0.5268 H   0  0  0  0  0  0  0  0  0  0  0  0
    7.1548    3.4095   -2.5777 H   0  0  0  0  0  0  0  0  0  0  0  0
    5.4410    2.9366   -2.6824 H   0  0  0  0  0  0  0  0  0  0  0  0
    4.0856    4.6724   -2.5279 H   0  0  0  0  0  0  0  0  0  0  0  0
    4.0678    5.9765   -1.3282 H   0  0  0  0  0  0  0  0  0  0  0  0
    3.6568    2.2141   -1.4412 H   0  0  0  0  0  0  0  0  0  0  0  0
    0.5973    2.2122    1.5637 H   0  0  0  0  0  0  0  0  0  0  0  0
    2.3678    5.9247    0.2890 H   0  0  0  0  0  0  0  0  0  0  0  0
    0.7841    4.8583    2.9352 H   0  0  0  0  0  0  0  0  0  0  0  0
    0.3970    6.0169    1.6196 H   0  0  0  0  0  0  0  0  0  0  0  0
   -1.9201    3.7690   -0.4662 H   0  0  0  0  0  0  0  0  0  0  0  0
   -0.7260    5.0804   -0.4134 H   0  0  0  0  0  0  0  0  0  0  0  0
   -2.5772    6.5478    0.7131 H   0  0  0  0  0  0  0  0  0  0  0  0
   -2.8235    6.1574   -3.5438 H   0  0  0  0  0  0  0  0  0  0  0  0
   -3.2868    4.7242   -2.5580 H   0  0  0  0  0  0  0  0  0  0  0  0
   -4.9064    5.9558   -0.0004 H   0  0  0  0  0  0  0  0  0  0  0  0
   -6.0275    4.1650   -1.2747 H   0  0  0  0  0  0  0  0  0  0  0  0
   -4.2846    2.5887   -2.1456 H   0  0  0  0  0  0  0  0  0  0  0  0
   -4.7736    1.3606   -0.9220 H   0  0  0  0  0  0  0  0  0  0  0  0
   -5.9265    1.8791   -2.2142 H   0  0  0  0  0  0  0  0  0  0  0  0
   -7.1357    3.6116    0.9361 H   0  0  0  0  0  0  0  0  0  0  0  0
   -6.3172   -0.0165    0.3908 H   0  0  0  0  0  0  0  0  0  0  0  0
   -7.7029    1.2490    2.8512 H   0  0  0  0  0  0  0  0  0  0  0  0
   -5.9937    1.5607    2.3561 H   0  0  0  0  0  0  0  0  0  0  0  0
   -6.4741   -0.0810    2.8591 H   0  0  0  0  0  0  0  0  0  0  0  0
   -9.2909   -0.0197    0.9524 H   0  0  0  0  0  0  0  0  0  0  0  0
   -6.1483   -1.9826    1.4665 H   0  0  0  0  0  0  0  0  0  0  0  0
   -7.4824   -3.6854    2.8123 H   0  0  0  0  0  0  0  0  0  0  0  0
   -7.6275   -4.6650    1.2990 H   0  0  0  0  0  0  0  0  0  0  0  0
   -6.0037   -4.3060    2.0165 H   0  0  0  0  0  0  0  0  0  0  0  0
   -7.1433   -2.6291   -1.1760 H   0  0  0  0  0  0  0  0  0  0  0  0
   -5.4622   -5.2545   -0.0878 H   0  0  0  0  0  0  0  0  0  0  0  0
   -3.5799   -4.7143   -2.4585 H   0  0  0  0  0  0  0  0  0  0  0  0
   -3.9008   -6.3261   -1.7020 H   0  0  0  0  0  0  0  0  0  0  0  0
   -5.2435   -5.4143   -2.4878 H   0  0  0  0  0  0  0  0  0  0  0  0
   -3.6369   -5.1794    1.2922 H   0  0  0  0  0  0  0  0  0  0  0  0
   -1.3936   -5.8585    1.2542 H   0  0  0  0  0  0  0  0  0  0  0  0
    0.8609   -6.0193    0.0215 H   0  0  0  0  0  0  0  0  0  0  0  0
    0.0550   -5.0810   -1.3089 H   0  0  0  0  0  0  0  0  0  0  0  0
   -0.6188   -6.6419   -0.7837 H   0  0  0  0  0  0  0  0  0  0  0  0
   -0.3903   -4.3139    2.5526 H   0  0  0  0  0  0  0  0  0  0  0  0
    1.5105   -3.7165   -0.4325 H   0  0  0  0  0  0  0  0  0  0  0  0
    0.0729   -2.1700   -1.5470 H   0  0  0  0  0  0  0  0  0  0  0  0
    1.7395   -1.6243   -1.7746 H   0  0  0  0  0  0  0  0  0  0  0  0
    2.4110    0.1668    1.0028 H   0  0  0  0  0  0  0  0  0  0  0  0
    2.8333    0.1808   -0.7423 H   0  0  0  0  0  0  0  0  0  0  0  0
    3.3707   -1.9432   -0.0970 H   0  0  0  0  0  0  0  0  0  0  0  0
    5.0405   -4.4597    2.1493 H   0  0  0  0  0  0  0  0  0  0  0  0
    5.5905   -5.2565   -0.2334 H   0  0  0  0  0  0  0  0  0  0  0  0
    4.0492   -5.8326    0.4989 H   0  0  0  0  0  0  0  0  0  0  0  0
    4.0021   -4.5394   -0.7389 H   0  0  0  0  0  0  0  0  0  0  0  0
    6.3366   -2.5903    1.8050 H   0  0  0  0  0  0  0  0  0  0  0  0
    6.8496   -0.4027    0.3219 H   0  0  0  0  0  0  0  0  0  0  0  0
    9.2654   -0.9680   -0.1008 H   0  0  0  0  0  0  0  0  0  0  0  0
    8.7608   -2.6181   -0.6412 H   0  0  0  0  0  0  0  0  0  0  0  0
    8.4962   -2.0978    1.0657 H   0  0  0  0  0  0  0  0  0  0  0  0
    7.4826   -1.3385   -2.5092 H   0  0  0  0  0  0  0  0  0  0  0  0
  1  2  1  0
  2  3  2  0
  2  4  1  0
  4  5  1  0
  5  6  1  0
  6  7  1  0
  7  8  1  0
  8  9  1  0
  9 10  2  0
 10 11  1  0
 11 12  2  0
 12 13  1  0
 13 14  2  0
 13 15  1  0
 15 16  1  0
 16 17  1  0
 17 18  1  0
 18 19  1  0
 19 20  1  0
 19 21  2  0
 18 22  1  0
 22 23  1  0
 23 24  2  0
 23 25  1  0
 25 26  1  0
 25 27  1  0
 27 28  1  0
 28 29  2  0
 28 30  1  0
 30 31  1  0
 30 32  1  0
 32 33  1  0
 33 34  2  0
 33 35  1  0
 35 36  1  0
 35 37  1  0
 37 38  1  0
 38 39  2  0
 38 40  1  0
 40 41  1  0
 40 42  1  0
 42 43  1  0
 43 44  2  0
 43 45  1  0
 45 46  1  0
 45 47  1  0
 47 48  1  0
 48 49  2  0
 48 50  1  0
 50 51  1  0
 51 52  1  0
 52 53  1  0
 50 54  1  0
 54 55  1  0
 55 56  2  0
 55 57  1  0
 57 58  1  0
 57 59  1  0
 59 60  1  0
 60 61  2  0
 60 62  1  0
 62 63  1  0
 62 64  1  0
 64 65  1  0
 65 66  2  0
 65  5  1  0
 14  9  1  0
 53 11  1  0
  1 67  1  0
  1 68  1  0
  1 69  1  0
  4 70  1  0
  5 71  1  1
  6 72  1  0
  6 73  1  0
  8 74  1  0
  8 75  1  0
 10 76  1  0
 12 77  1  0
 14 78  1  0
 15 79  1  0
 15 80  1  0
 17 81  1  0
 17 82  1  0
 18 83  1  1
 20 84  1  0
 20 85  1  0
 22 86  1  0
 25 87  1  6
 26 88  1  0
 26 89  1  0
 26 90  1  0
 27 91  1  0
 30 92  1  6
 31 93  1  0
 31 94  1  0
 31 95  1  0
 32 96  1  0
 35 97  1  1
 36 98  1  0
 36 99  1  0
 36100  1  0
 37101  1  0
 40102  1  1
 41103  1  0
 41104  1  0
 41105  1  0
 42106  1  0
 45107  1  1
 46108  1  0
 46109  1  0
 46110  1  0
 47111  1  0
 50112  1  6
 51113  1  0
 51114  1  0
 53115  1  0
 53116  1  0
 54117  1  0
 57118  1  1
 58119  1  0
 58120  1  0
 58121  1  0
 59122  1  0
 62123  1  1
 63124  1  0
 63125  1  0
 63126  1  0
 64127  1  0
M  END
