
     RDKit          3D

137139  0  0  0  0  0  0  0  0999 V2000
    9.0243   -1.3734    2.9248 C   0  0  0  0  0  0  0  0  0  0  0  0
    7.5864   -1.6484    2.6175 C   0  0  0  0  0  0  0  0  0  0  0  0
    6.8550   -2.1912    3.4949 O   0  0  0  0  0  0  0  0  0  0  0  0
    7.0038   -1.2646    1.3670 N   0  0  0  0  0  0  0  0  0  0  0  0
    7.5879   -1.5063    0.0389 C   0  0  2  0  0  0  0  0  0  0  0  0
    7.8787   -3.0161   -0.1940 C   0  0  0  0  0  0  0  0  0  0  0  0
    6.5922   -3.8106   -1.2387 S   0  0  0  0  0  0  0  0  0  0  0  0
    5.3356   -4.1404    0.0496 C   0  0  0  0  0  0  0  0  0  0  0  0
    4.0106   -3.5901   -0.3984 C   0  0  0  0  0  0  0  0  0  0  0  0
    2.9886   -4.4295   -0.8578 C   0  0  0  0  0  0  0  0  0  0  0  0
    1.7632   -3.8862   -1.2810 C   0  0  0  0  0  0  0  0  0  0  0  0
    1.5650   -2.4946   -1.2449 C   0  0  0  0  0  0  0  0  0  0  0  0
    2.5818   -1.6456   -0.7917 C   0  0  0  0  0  0  0  0  0  0  0  0
    3.7854   -2.2131   -0.3506 C   0  0  0  0  0  0  0  0  0  0  0  0
    2.3499   -0.1641   -0.6562 C   0  0  0  0  0  0  0  0  0  0  0  0
    3.8381    0.7553   -1.1963 S   0  0  0  0  0  0  0  0  0  0  0  0
    3.0606    2.3319   -1.6809 C   0  0  0  0  0  0  0  0  0  0  0  0
    2.4091    3.1178   -0.5147 C   0  0  1  0  0  0  0  0  0  0  0  0
    3.0204    2.8350    0.7937 N   0  0  0  0  0  0  0  0  0  0  0  0
    4.3094    3.2544    1.2910 C   0  0  0  0  0  0  0  0  0  0  0  0
    4.5856    3.0011    2.4947 O   0  0  0  0  0  0  0  0  0  0  0  0
    5.3403    3.9746    0.4561 C   0  0  1  0  0  0  0  0  0  0  0  0
    5.4619    5.4296    0.9029 C   0  0  0  0  0  0  0  0  0  0  0  0
    6.6391    3.3139    0.6073 N   0  0  0  0  0  0  0  0  0  0  0  0
    7.3855    2.8692   -0.5272 C   0  0  0  0  0  0  0  0  0  0  0  0
    8.0594    3.7025   -1.1897 O   0  0  0  0  0  0  0  0  0  0  0  0
    7.3993    1.4108   -0.8939 C   0  0  1  0  0  0  0  0  0  0  0  0
    7.1953    1.2347   -2.4023 C   0  0  0  0  0  0  0  0  0  0  0  0
    8.6573    0.7844   -0.4783 N   0  0  0  0  0  0  0  0  0  0  0  0
    8.7964   -0.6125   -0.1677 C   0  0  0  0  0  0  0  0  0  0  0  0
    9.9572   -1.0856   -0.0354 O   0  0  0  0  0  0  0  0  0  0  0  0
    2.3297    4.6058   -0.7645 C   0  0  0  0  0  0  0  0  0  0  0  0
    2.9750    5.1423   -1.7057 O   0  0  0  0  0  0  0  0  0  0  0  0
    1.5675    5.4420    0.1105 N   0  0  0  0  0  0  0  0  0  0  0  0
    0.1041    5.3650    0.1472 C   0  0  2  0  0  0  0  0  0  0  0  0
   -0.4840    6.3488   -0.8706 C   0  0  0  0  0  0  0  0  0  0  0  0
   -0.3880    5.6770    1.5351 C   0  0  0  0  0  0  0  0  0  0  0  0
    0.0940    6.6677    2.1633 O   0  0  0  0  0  0  0  0  0  0  0  0
   -1.3671    4.8576    2.1791 N   0  0  0  0  0  0  0  0  0  0  0  0
   -2.6984    4.6617    1.5949 C   0  0  2  0  0  0  0  0  0  0  0  0
   -3.6228    5.7752    2.0942 C   0  0  0  0  0  0  0  0  0  0  0  0
   -3.2494    3.3130    1.9956 C   0  0  0  0  0  0  0  0  0  0  0  0
   -3.1357    2.9518    3.1964 O   0  0  0  0  0  0  0  0  0  0  0  0
   -3.8981    2.4179    1.0691 N   0  0  0  0  0  0  0  0  0  0  0  0
   -4.2520    2.7099   -0.3308 C   0  0  2  0  0  0  0  0  0  0  0  0
   -5.2059    3.9104   -0.4481 C   0  0  0  0  0  0  0  0  0  0  0  0
   -4.8367    1.4748   -0.9878 C   0  0  0  0  0  0  0  0  0  0  0  0
   -4.2927    1.0400   -2.0398 O   0  0  0  0  0  0  0  0  0  0  0  0
   -5.9104    0.7118   -0.4032 N   0  0  0  0  0  0  0  0  0  0  0  0
   -7.1555    1.2910    0.1162 C   0  0  2  0  0  0  0  0  0  0  0  0
   -7.1565    1.2863    1.6457 C   0  0  0  0  0  0  0  0  0  0  0  0
   -8.3703    0.5629   -0.3992 C   0  0  0  0  0  0  0  0  0  0  0  0
   -9.5039    1.0897   -0.2495 O   0  0  0  0  0  0  0  0  0  0  0  0
   -8.2737   -0.7100   -1.0480 N   0  0  0  0  0  0  0  0  0  0  0  0
   -8.6346   -1.9830   -0.4130 C   0  0  2  0  0  0  0  0  0  0  0  0
   -9.6950   -1.8261    0.6835 C   0  0  0  0  0  0  0  0  0  0  0  0
   -7.3990   -2.6822    0.0787 C   0  0  0  0  0  0  0  0  0  0  0  0
   -7.0412   -2.5888    1.2892 O   0  0  0  0  0  0  0  0  0  0  0  0
   -6.5932   -3.4097   -0.8588 N   0  0  0  0  0  0  0  0  0  0  0  0
   -6.0377   -4.7430   -0.6120 C   0  0  2  0  0  0  0  0  0  0  0  0
   -7.0422   -5.6716    0.0708 C   0  0  0  0  0  0  0  0  0  0  0  0
   -4.7492   -4.6624    0.1616 C   0  0  0  0  0  0  0  0  0  0  0  0
   -4.7425   -4.2768    1.3601 O   0  0  0  0  0  0  0  0  0  0  0  0
   -3.5189   -5.0044   -0.4739 N   0  0  0  0  0  0  0  0  0  0  0  0
   -2.8500   -6.2827   -0.2093 C   0  0  1  0  0  0  0  0  0  0  0  0
   -3.7072   -7.4253   -0.6869 C   0  0  0  0  0  0  0  0  0  0  0  0
   -4.1832   -7.4698   -2.0325 N   0  0  0  0  0  0  0  0  0  0  0  0
   -4.0102   -8.3554    0.1110 O   0  0  0  0  0  0  0  0  0  0  0  0
   -1.4917   -6.3249   -0.9194 C   0  0  0  0  0  0  0  0  0  0  0  0
   -0.3600   -5.1199   -0.1456 S   0  0  0  0  0  0  0  0  0  0  0  0
    0.6253   -4.7944   -1.6466 C   0  0  0  0  0  0  0  0  0  0  0  0
    9.1794   -1.3520    4.0209 H   0  0  0  0  0  0  0  0  0  0  0  0
    9.6514   -2.1703    2.4861 H   0  0  0  0  0  0  0  0  0  0  0  0
    9.3158   -0.3867    2.5222 H   0  0  0  0  0  0  0  0  0  0  0  0
    6.0458   -0.8509    1.4153 H   0  0  0  0  0  0  0  0  0  0  0  0
    6.8442   -1.2153   -0.7297 H   0  0  0  0  0  0  0  0  0  0  0  0
    8.8260   -3.1419   -0.7681 H   0  0  0  0  0  0  0  0  0  0  0  0
    8.0131   -3.5792    0.7587 H   0  0  0  0  0  0  0  0  0  0  0  0
    5.6063   -3.7046    1.0288 H   0  0  0  0  0  0  0  0  0  0  0  0
    5.2706   -5.2402    0.1834 H   0  0  0  0  0  0  0  0  0  0  0  0
    3.1318   -5.5020   -0.8705 H   0  0  0  0  0  0  0  0  0  0  0  0
    0.6046   -2.0806   -1.5335 H   0  0  0  0  0  0  0  0  0  0  0  0
    4.5543   -1.5776    0.0398 H   0  0  0  0  0  0  0  0  0  0  0  0
    1.4629    0.1474   -1.2427 H   0  0  0  0  0  0  0  0  0  0  0  0
    2.1529    0.0523    0.4124 H   0  0  0  0  0  0  0  0  0  0  0  0
    2.2976    2.1316   -2.4659 H   0  0  0  0  0  0  0  0  0  0  0  0
    3.8606    2.9166   -2.1759 H   0  0  0  0  0  0  0  0  0  0  0  0
    1.3620    2.7492   -0.4724 H   0  0  0  0  0  0  0  0  0  0  0  0
    2.4096    2.3350    1.4792 H   0  0  0  0  0  0  0  0  0  0  0  0
    5.0564    3.9721   -0.6094 H   0  0  0  0  0  0  0  0  0  0  0  0
    6.2224    5.9465    0.2800 H   0  0  0  0  0  0  0  0  0  0  0  0
    5.7683    5.4929    1.9700 H   0  0  0  0  0  0  0  0  0  0  0  0
    4.4935    5.9525    0.7758 H   0  0  0  0  0  0  0  0  0  0  0  0
    7.0172    3.1083    1.5625 H   0  0  0  0  0  0  0  0  0  0  0  0
    6.5463    0.9425   -0.3581 H   0  0  0  0  0  0  0  0  0  0  0  0
    6.2640    1.7476   -2.7269 H   0  0  0  0  0  0  0  0  0  0  0  0
    7.1136    0.1587   -2.6636 H   0  0  0  0  0  0  0  0  0  0  0  0
    8.0509    1.6729   -2.9614 H   0  0  0  0  0  0  0  0  0  0  0  0
    9.5353    1.3527   -0.5378 H   0  0  0  0  0  0  0  0  0  0  0  0
    2.0063    6.3479    0.3903 H   0  0  0  0  0  0  0  0  0  0  0  0
   -0.2379    4.3445   -0.1237 H   0  0  0  0  0  0  0  0  0  0  0  0
   -1.5939    6.3160   -0.8592 H   0  0  0  0  0  0  0  0  0  0  0  0
   -0.1424    6.0687   -1.8913 H   0  0  0  0  0  0  0  0  0  0  0  0
   -0.1482    7.3831   -0.6536 H   0  0  0  0  0  0  0  0  0  0  0  0
   -1.2819    4.7696    3.2189 H   0  0  0  0  0  0  0  0  0  0  0  0
   -2.6246    4.7226    0.4957 H   0  0  0  0  0  0  0  0  0  0  0  0
   -4.6632    5.6204    1.7442 H   0  0  0  0  0  0  0  0  0  0  0  0
   -3.6317    5.8075    3.2054 H   0  0  0  0  0  0  0  0  0  0  0  0
   -3.2685    6.7608    1.7186 H   0  0  0  0  0  0  0  0  0  0  0  0
   -4.0846    1.4565    1.4328 H   0  0  0  0  0  0  0  0  0  0  0  0
   -3.3187    2.9702   -0.8802 H   0  0  0  0  0  0  0  0  0  0  0  0
   -5.8137    3.8486   -1.3786 H   0  0  0  0  0  0  0  0  0  0  0  0
   -4.6417    4.8587   -0.5218 H   0  0  0  0  0  0  0  0  0  0  0  0
   -5.8788    3.9761    0.4296 H   0  0  0  0  0  0  0  0  0  0  0  0
   -5.8128   -0.3305   -0.4266 H   0  0  0  0  0  0  0  0  0  0  0  0
   -7.2611    2.3313   -0.2387 H   0  0  0  0  0  0  0  0  0  0  0  0
   -8.0860    1.7553    2.0247 H   0  0  0  0  0  0  0  0  0  0  0  0
   -7.0900    0.2495    2.0269 H   0  0  0  0  0  0  0  0  0  0  0  0
   -6.3049    1.8720    2.0368 H   0  0  0  0  0  0  0  0  0  0  0  0
   -8.1666   -0.7045   -2.0916 H   0  0  0  0  0  0  0  0  0  0  0  0
   -9.0850   -2.6368   -1.1884 H   0  0  0  0  0  0  0  0  0  0  0  0
   -9.9651   -2.8246    1.0993 H   0  0  0  0  0  0  0  0  0  0  0  0
  -10.6158   -1.3686    0.2582 H   0  0  0  0  0  0  0  0  0  0  0  0
   -9.3209   -1.1895    1.5164 H   0  0  0  0  0  0  0  0  0  0  0  0
   -6.5517   -3.0465   -1.8454 H   0  0  0  0  0  0  0  0  0  0  0  0
   -5.8037   -5.1879   -1.6011 H   0  0  0  0  0  0  0  0  0  0  0  0
   -7.2825   -5.3213    1.0947 H   0  0  0  0  0  0  0  0  0  0  0  0
   -7.9778   -5.7199   -0.5243 H   0  0  0  0  0  0  0  0  0  0  0  0
   -6.6203   -6.6989    0.1358 H   0  0  0  0  0  0  0  0  0  0  0  0
   -3.1578   -4.3644   -1.2233 H   0  0  0  0  0  0  0  0  0  0  0  0
   -2.6803   -6.3899    0.8865 H   0  0  0  0  0  0  0  0  0  0  0  0
   -4.7591   -8.2779   -2.3556 H   0  0  0  0  0  0  0  0  0  0  0  0
   -3.9812   -6.6946   -2.7030 H   0  0  0  0  0  0  0  0  0  0  0  0
   -1.6223   -6.1005   -2.0029 H   0  0  0  0  0  0  0  0  0  0  0  0
   -1.0370   -7.3392   -0.8358 H   0  0  0  0  0  0  0  0  0  0  0  0
    1.0068   -5.7501   -2.0730 H   0  0  0  0  0  0  0  0  0  0  0  0
   -0.0199   -4.3063   -2.4116 H   0  0  0  0  0  0  0  0  0  0  0  0
  1  2  1  0
  2  3  2  0
  2  4  1  0
  4  5  1  0
  5  6  1  0
  6  7  1  0
  7  8  1  0
  8  9  1  0
  9 10  2  0
 10 11  1  0
 11 12  2  0
 12 13  1  0
 13 14  2  0
 13 15  1  0
 15 16  1  0
 16 17  1  0
 17 18  1  0
 18 19  1  0
 19 20  1  0
 20 21  2  0
 20 22  1  0
 22 23  1  0
 22 24  1  0
 24 25  1  0
 25 26  2  0
 25 27  1  0
 27 28  1  0
 27 29  1  0
 29 30  1  0
 30 31  2  0
 18 32  1  0
 32 33  2  0
 32 34  1  0
 34 35  1  0
 35 36  1  0
 35 37  1  0
 37 38  2  0
 37 39  1  0
 39 40  1  0
 40 41  1  0
 40 42  1  0
 42 43  2  0
 42 44  1  0
 44 45  1  0
 45 46  1  0
 45 47  1  0
 47 48  2  0
 47 49  1  0
 49 50  1  0
 50 51  1  0
 50 52  1  0
 52 53  2  0
 52 54  1  0
 54 55  1  0
 55 56  1  0
 55 57  1  0
 57 58  2  0
 57 59  1  0
 59 60  1  0
 60 61  1  0
 60 62  1  0
 62 63  2  0
 62 64  1  0
 64 65  1  0
 65 66  1  0
 66 67  1  0
 66 68  2  0
 65 69  1  0
 69 70  1  0
 70 71  1  0
 30  5  1  0
 14  9  1  0
 71 11  1  0
  1 72  1  0
  1 73  1  0
  1 74  1  0
  4 75  1  0
  5 76  1  6
  6 77  1  0
  6 78  1  0
  8 79  1  0
  8 80  1  0
 10 81  1  0
 12 82  1  0
 14 83  1  0
 15 84  1  0
 15 85  1  0
 17 86  1  0
 17 87  1  0
 18 88  1  1
 19 89  1  0
 22 90  1  6
 23 91  1  0
 23 92  1  0
 23 93  1  0
 24 94  1  0
 27 95  1  1
 28 96  1  0
 28 97  1  0
 28 98  1  0
 29 99  1  0
 34100  1  0
 35101  1  6
 36102  1  0
 36103  1  0
 36104  1  0
 39105  1  0
 40106  1  6
 41107  1  0
 41108  1  0
 41109  1  0
 44110  1  0
 45111  1  6
 46112  1  0
 46113  1  0
 46114  1  0
 49115  1  0
 50116  1  1
 51117  1  0
 51118  1  0
 51119  1  0
 54120  1  0
 55121  1  6
 56122  1  0
 56123  1  0
 56124  1  0
 59125  1  0
 60126  1  6
 61127  1  0
 61128  1  0
 61129  1  0
 64130  1  0
 65131  1  1
 67132  1  0
 67133  1  0
 69134  1  0
 69135  1  0
 71136  1  0
 71137  1  0
M  END
