
     RDKit          3D

147149  0  0  0  0  0  0  0  0999 V2000
   -9.9282   -2.5310    1.7688 C   0  0  0  0  0  0  0  0  0  0  0  0
   -9.7005   -3.3058    0.5095 C   0  0  0  0  0  0  0  0  0  0  0  0
  -10.4437   -4.2926    0.2694 O   0  0  0  0  0  0  0  0  0  0  0  0
   -8.6762   -2.9389   -0.4376 N   0  0  0  0  0  0  0  0  0  0  0  0
   -7.8199   -1.7558   -0.3152 C   0  0  1  0  0  0  0  0  0  0  0  0
   -6.4323   -2.0495   -0.9022 C   0  0  0  0  0  0  0  0  0  0  0  0
   -5.5547   -3.2982    0.1086 S   0  0  0  0  0  0  0  0  0  0  0  0
   -4.2143   -3.6190   -1.1036 C   0  0  0  0  0  0  0  0  0  0  0  0
   -3.0154   -2.7495   -0.8017 C   0  0  0  0  0  0  0  0  0  0  0  0
   -2.1708   -3.0743    0.2714 C   0  0  0  0  0  0  0  0  0  0  0  0
   -0.9429   -2.4100    0.4523 C   0  0  0  0  0  0  0  0  0  0  0  0
   -0.5858   -1.3857   -0.4371 C   0  0  0  0  0  0  0  0  0  0  0  0
   -1.4754   -0.9639   -1.4443 C   0  0  0  0  0  0  0  0  0  0  0  0
   -2.6659   -1.6786   -1.6442 C   0  0  0  0  0  0  0  0  0  0  0  0
   -1.1539    0.1958   -2.3596 C   0  0  0  0  0  0  0  0  0  0  0  0
   -0.0570    1.4888   -1.6462 S   0  0  0  0  0  0  0  0  0  0  0  0
   -0.9913    1.8507   -0.0968 C   0  0  0  0  0  0  0  0  0  0  0  0
   -1.6553    3.2360   -0.1366 C   0  0  1  0  0  0  0  0  0  0  0  0
   -2.7193    3.2612   -1.1526 N   0  0  0  0  0  0  0  0  0  0  0  0
   -4.0228    3.8198   -0.9380 C   0  0  0  0  0  0  0  0  0  0  0  0
   -4.1269    4.9639   -0.4346 O   0  0  0  0  0  0  0  0  0  0  0  0
   -5.2819    3.0648   -1.2743 C   0  0  1  0  0  0  0  0  0  0  0  0
   -5.0026    1.7497   -2.0164 C   0  0  0  0  0  0  0  0  0  0  0  0
   -6.0062    2.7684   -0.0380 N   0  0  0  0  0  0  0  0  0  0  0  0
   -7.4187    2.5489   -0.0321 C   0  0  0  0  0  0  0  0  0  0  0  0
   -8.1970    3.4212   -0.5159 O   0  0  0  0  0  0  0  0  0  0  0  0
   -7.9853    1.2871    0.5723 C   0  0  1  0  0  0  0  0  0  0  0  0
   -8.8097    1.5936    1.8347 C   0  0  0  0  0  0  0  0  0  0  0  0
   -8.8246    0.6057   -0.4226 N   0  0  0  0  0  0  0  0  0  0  0  0
   -8.4469   -0.6136   -1.0718 C   0  0  0  0  0  0  0  0  0  0  0  0
   -8.6941   -0.7544   -2.2974 O   0  0  0  0  0  0  0  0  0  0  0  0
   -2.1939    3.5628    1.2420 C   0  0  0  0  0  0  0  0  0  0  0  0
   -3.0039    2.7572    1.7823 O   0  0  0  0  0  0  0  0  0  0  0  0
   -1.8552    4.7709    1.9516 N   0  0  0  0  0  0  0  0  0  0  0  0
   -0.7062    5.6297    1.6502 C   0  0  2  0  0  0  0  0  0  0  0  0
   -0.4036    6.5469    2.8493 C   0  0  0  0  0  0  0  0  0  0  0  0
   -0.9877    6.4861    0.4381 C   0  0  0  0  0  0  0  0  0  0  0  0
   -2.1224    7.0375    0.3190 O   0  0  0  0  0  0  0  0  0  0  0  0
   -0.0043    6.6997   -0.5880 N   0  0  0  0  0  0  0  0  0  0  0  0
    1.4400    6.7502   -0.3352 C   0  0  2  0  0  0  0  0  0  0  0  0
    1.9155    8.2028   -0.3454 C   0  0  0  0  0  0  0  0  0  0  0  0
    2.1668    5.9624   -1.4011 C   0  0  0  0  0  0  0  0  0  0  0  0
    1.7721    6.0241   -2.6009 O   0  0  0  0  0  0  0  0  0  0  0  0
    3.3175    5.1403   -1.1105 N   0  0  0  0  0  0  0  0  0  0  0  0
    4.1870    5.2954    0.0674 C   0  0  2  0  0  0  0  0  0  0  0  0
    5.5740    5.7995   -0.3460 C   0  0  0  0  0  0  0  0  0  0  0  0
    4.2663    4.0117    0.8559 C   0  0  0  0  0  0  0  0  0  0  0  0
    4.3514    4.0840    2.1165 O   0  0  0  0  0  0  0  0  0  0  0  0
    4.1692    2.7182    0.2415 N   0  0  0  0  0  0  0  0  0  0  0  0
    5.1401    2.2508   -0.7513 C   0  0  2  0  0  0  0  0  0  0  0  0
    4.5268    1.1517   -1.6267 C   0  0  0  0  0  0  0  0  0  0  0  0
    6.3869    1.7566   -0.0770 C   0  0  0  0  0  0  0  0  0  0  0  0
    7.4430    2.4346   -0.1392 O   0  0  0  0  0  0  0  0  0  0  0  0
    6.3512    0.5341    0.6785 N   0  0  0  0  0  0  0  0  0  0  0  0
    7.5006   -0.3662    0.8738 C   0  0  2  0  0  0  0  0  0  0  0  0
    8.5001   -0.3386   -0.3041 C   0  0  0  0  0  0  0  0  0  0  0  0
    6.9963   -1.7731    1.1164 C   0  0  0  0  0  0  0  0  0  0  0  0
    6.7929   -2.1540    2.3058 O   0  0  0  0  0  0  0  0  0  0  0  0
    6.7250   -2.6676    0.0206 N   0  0  0  0  0  0  0  0  0  0  0  0
    6.6462   -4.1268    0.1691 C   0  0  2  0  0  0  0  0  0  0  0  0
    7.9601   -4.6677    0.7474 C   0  0  0  0  0  0  0  0  0  0  0  0
    6.3963   -4.7629   -1.1822 C   0  0  0  0  0  0  0  0  0  0  0  0
    7.2287   -4.5380   -2.1088 O   0  0  0  0  0  0  0  0  0  0  0  0
    5.2135   -5.5240   -1.4922 N   0  0  0  0  0  0  0  0  0  0  0  0
    4.4074   -6.2677   -0.5115 C   0  0  2  0  0  0  0  0  0  0  0  0
    5.2819   -7.2985    0.2243 C   0  0  0  0  0  0  0  0  0  0  0  0
    3.2649   -6.9742   -1.2123 C   0  0  0  0  0  0  0  0  0  0  0  0
    3.5329   -7.7152   -2.1953 O   0  0  0  0  0  0  0  0  0  0  0  0
    1.8891   -6.8504   -0.8097 N   0  0  0  0  0  0  0  0  0  0  0  0
    1.3643   -6.4338    0.5002 C   0  0  1  0  0  0  0  0  0  0  0  0
    2.1753   -7.0017    1.6396 C   0  0  0  0  0  0  0  0  0  0  0  0
    2.2435   -8.4110    1.8256 N   0  0  0  0  0  0  0  0  0  0  0  0
    2.7913   -6.2413    2.4386 O   0  0  0  0  0  0  0  0  0  0  0  0
    1.1654   -4.9131    0.5699 C   0  0  0  0  0  0  0  0  0  0  0  0
    0.0906   -4.5032    1.9887 S   0  0  0  0  0  0  0  0  0  0  0  0
   -0.0348   -2.7198    1.6208 C   0  0  0  0  0  0  0  0  0  0  0  0
  -10.1806   -1.4736    1.5399 H   0  0  0  0  0  0  0  0  0  0  0  0
  -10.7672   -2.9659    2.3527 H   0  0  0  0  0  0  0  0  0  0  0  0
   -9.0123   -2.5647    2.4010 H   0  0  0  0  0  0  0  0  0  0  0  0
   -8.6548   -3.4760   -1.3406 H   0  0  0  0  0  0  0  0  0  0  0  0
   -7.6843   -1.4969    0.7595 H   0  0  0  0  0  0  0  0  0  0  0  0
   -5.8133   -1.1300   -0.9251 H   0  0  0  0  0  0  0  0  0  0  0  0
   -6.5641   -2.4212   -1.9399 H   0  0  0  0  0  0  0  0  0  0  0  0
   -3.9290   -4.6844   -1.0274 H   0  0  0  0  0  0  0  0  0  0  0  0
   -4.5615   -3.4575   -2.1486 H   0  0  0  0  0  0  0  0  0  0  0  0
   -2.4495   -3.8894    0.9418 H   0  0  0  0  0  0  0  0  0  0  0  0
    0.3689   -0.8845   -0.3111 H   0  0  0  0  0  0  0  0  0  0  0  0
   -3.3176   -1.4157   -2.4566 H   0  0  0  0  0  0  0  0  0  0  0  0
   -0.6459   -0.2088   -3.2565 H   0  0  0  0  0  0  0  0  0  0  0  0
   -2.0951    0.6901   -2.6794 H   0  0  0  0  0  0  0  0  0  0  0  0
   -1.7618    1.0801    0.1061 H   0  0  0  0  0  0  0  0  0  0  0  0
   -0.2650    1.8151    0.7268 H   0  0  0  0  0  0  0  0  0  0  0  0
   -0.8861    3.9703   -0.4405 H   0  0  0  0  0  0  0  0  0  0  0  0
   -2.4914    2.9480   -2.1184 H   0  0  0  0  0  0  0  0  0  0  0  0
   -5.9058    3.7108   -1.9191 H   0  0  0  0  0  0  0  0  0  0  0  0
   -4.4744    1.9456   -2.9789 H   0  0  0  0  0  0  0  0  0  0  0  0
   -4.3873    1.0675   -1.3908 H   0  0  0  0  0  0  0  0  0  0  0  0
   -5.9601    1.2308   -2.2543 H   0  0  0  0  0  0  0  0  0  0  0  0
   -5.4667    2.5490    0.8439 H   0  0  0  0  0  0  0  0  0  0  0  0
   -7.1336    0.6381    0.8650 H   0  0  0  0  0  0  0  0  0  0  0  0
   -9.6817    2.2384    1.5818 H   0  0  0  0  0  0  0  0  0  0  0  0
   -9.1741    0.6323    2.2628 H   0  0  0  0  0  0  0  0  0  0  0  0
   -8.1710    2.1073    2.5967 H   0  0  0  0  0  0  0  0  0  0  0  0
   -9.5951    1.1590   -0.8704 H   0  0  0  0  0  0  0  0  0  0  0  0
   -2.4099    4.9727    2.8215 H   0  0  0  0  0  0  0  0  0  0  0  0
    0.1765    4.9696    1.4793 H   0  0  0  0  0  0  0  0  0  0  0  0
   -1.2753    7.1953    3.0664 H   0  0  0  0  0  0  0  0  0  0  0  0
    0.4833    7.1939    2.6286 H   0  0  0  0  0  0  0  0  0  0  0  0
   -0.1764    5.9343    3.7453 H   0  0  0  0  0  0  0  0  0  0  0  0
   -0.3489    7.0939   -1.4943 H   0  0  0  0  0  0  0  0  0  0  0  0
    1.6691    6.3273    0.6610 H   0  0  0  0  0  0  0  0  0  0  0  0
    1.7303    8.6747   -1.3369 H   0  0  0  0  0  0  0  0  0  0  0  0
    1.3517    8.7755    0.4349 H   0  0  0  0  0  0  0  0  0  0  0  0
    3.0002    8.2628   -0.1167 H   0  0  0  0  0  0  0  0  0  0  0  0
    3.6304    4.4755   -1.8605 H   0  0  0  0  0  0  0  0  0  0  0  0
    3.7922    6.0817    0.7473 H   0  0  0  0  0  0  0  0  0  0  0  0
    5.4691    6.7821   -0.8635 H   0  0  0  0  0  0  0  0  0  0  0  0
    6.2109    5.9545    0.5614 H   0  0  0  0  0  0  0  0  0  0  0  0
    6.0881    5.1064   -1.0403 H   0  0  0  0  0  0  0  0  0  0  0  0
    3.6361    1.9975    0.7666 H   0  0  0  0  0  0  0  0  0  0  0  0
    5.4083    3.0762   -1.4389 H   0  0  0  0  0  0  0  0  0  0  0  0
    3.6454    1.5490   -2.1781 H   0  0  0  0  0  0  0  0  0  0  0  0
    4.2038    0.2857   -1.0000 H   0  0  0  0  0  0  0  0  0  0  0  0
    5.2820    0.7964   -2.3691 H   0  0  0  0  0  0  0  0  0  0  0  0
    5.5260    0.4095    1.3178 H   0  0  0  0  0  0  0  0  0  0  0  0
    8.0535   -0.0345    1.7853 H   0  0  0  0  0  0  0  0  0  0  0  0
    9.1151    0.5879   -0.2491 H   0  0  0  0  0  0  0  0  0  0  0  0
    7.9626   -0.3503   -1.2820 H   0  0  0  0  0  0  0  0  0  0  0  0
    9.1993   -1.1886   -0.2490 H   0  0  0  0  0  0  0  0  0  0  0  0
    6.6841   -2.2514   -0.9355 H   0  0  0  0  0  0  0  0  0  0  0  0
    5.8277   -4.3645    0.8739 H   0  0  0  0  0  0  0  0  0  0  0  0
    8.8247   -4.2992    0.1509 H   0  0  0  0  0  0  0  0  0  0  0  0
    7.9761   -5.7811    0.7415 H   0  0  0  0  0  0  0  0  0  0  0  0
    8.0958   -4.3350    1.7966 H   0  0  0  0  0  0  0  0  0  0  0  0
    5.0016   -5.6382   -2.5056 H   0  0  0  0  0  0  0  0  0  0  0  0
    3.9967   -5.5543    0.2193 H   0  0  0  0  0  0  0  0  0  0  0  0
    4.6712   -8.0825    0.7080 H   0  0  0  0  0  0  0  0  0  0  0  0
    5.9901   -7.7998   -0.4818 H   0  0  0  0  0  0  0  0  0  0  0  0
    5.8785   -6.7946    1.0174 H   0  0  0  0  0  0  0  0  0  0  0  0
    1.1848   -7.2798   -1.4516 H   0  0  0  0  0  0  0  0  0  0  0  0
    0.3499   -6.8830    0.5980 H   0  0  0  0  0  0  0  0  0  0  0  0
    1.8623   -9.0665    1.1065 H   0  0  0  0  0  0  0  0  0  0  0  0
    2.7025   -8.8222    2.6712 H   0  0  0  0  0  0  0  0  0  0  0  0
    0.6664   -4.5744   -0.3742 H   0  0  0  0  0  0  0  0  0  0  0  0
    2.1248   -4.3792    0.6711 H   0  0  0  0  0  0  0  0  0  0  0  0
    0.9915   -2.3283    1.4437 H   0  0  0  0  0  0  0  0  0  0  0  0
   -0.4342   -2.2013    2.5344 H   0  0  0  0  0  0  0  0  0  0  0  0
  1  2  1  0
  2  3  2  0
  2  4  1  0
  4  5  1  0
  5  6  1  0
  6  7  1  0
  7  8  1  0
  8  9  1  0
  9 10  2  0
 10 11  1  0
 11 12  2  0
 12 13  1  0
 13 14  2  0
 13 15  1  0
 15 16  1  0
 16 17  1  0
 17 18  1  0
 18 19  1  0
 19 20  1  0
 20 21  2  0
 20 22  1  0
 22 23  1  0
 22 24  1  0
 24 25  1  0
 25 26  2  0
 25 27  1  0
 27 28  1  0
 27 29  1  0
 29 30  1  0
 30 31  2  0
 18 32  1  0
 32 33  2  0
 32 34  1  0
 34 35  1  0
 35 36  1  0
 35 37  1  0
 37 38  2  0
 37 39  1  0
 39 40  1  0
 40 41  1  0
 40 42  1  0
 42 43  2  0
 42 44  1  0
 44 45  1  0
 45 46  1  0
 45 47  1  0
 47 48  2  0
 47 49  1  0
 49 50  1  0
 50 51  1  0
 50 52  1  0
 52 53  2  0
 52 54  1  0
 54 55  1  0
 55 56  1  0
 55 57  1  0
 57 58  2  0
 57 59  1  0
 59 60  1  0
 60 61  1  0
 60 62  1  0
 62 63  2  0
 62 64  1  0
 64 65  1  0
 65 66  1  0
 65 67  1  0
 67 68  2  0
 67 69  1  0
 69 70  1  0
 70 71  1  0
 71 72  1  0
 71 73  2  0
 70 74  1  0
 74 75  1  0
 75 76  1  0
 30  5  1  0
 14  9  1  0
 76 11  1  0
  1 77  1  0
  1 78  1  0
  1 79  1  0
  4 80  1  0
  5 81  1  1
  6 82  1  0
  6 83  1  0
  8 84  1  0
  8 85  1  0
 10 86  1  0
 12 87  1  0
 14 88  1  0
 15 89  1  0
 15 90  1  0
 17 91  1  0
 17 92  1  0
 18 93  1  6
 19 94  1  0
 22 95  1  6
 23 96  1  0
 23 97  1  0
 23 98  1  0
 24 99  1  0
 27100  1  1
 28101  1  0
 28102  1  0
 28103  1  0
 29104  1  0
 34105  1  0
 35106  1  6
 36107  1  0
 36108  1  0
 36109  1  0
 39110  1  0
 40111  1  1
 41112  1  0
 41113  1  0
 41114  1  0
 44115  1  0
 45116  1  1
 46117  1  0
 46118  1  0
 46119  1  0
 49120  1  0
 50121  1  6
 51122  1  0
 51123  1  0
 51124  1  0
 54125  1  0
 55126  1  1
 56127  1  0
 56128  1  0
 56129  1  0
 59130  1  0
 60131  1  1
 61132  1  0
 61133  1  0
 61134  1  0
 64135  1  0
 65136  1  1
 66137  1  0
 66138  1  0
 66139  1  0
 69140  1  0
 70141  1  1
 72142  1  0
 72143  1  0
 74144  1  0
 74145  1  0
 76146  1  0
 76147  1  0
M  END
