
     RDKit          3D

167169  0  0  0  0  0  0  0  0999 V2000
   12.4317    3.1323    0.3897 C   0  0  0  0  0  0  0  0  0  0  0  0
   11.1116    2.4402    0.5214 C   0  0  0  0  0  0  0  0  0  0  0  0
   10.6777    2.1690    1.6715 O   0  0  0  0  0  0  0  0  0  0  0  0
   10.3686    2.0664   -0.6549 N   0  0  0  0  0  0  0  0  0  0  0  0
    9.0501    1.4264   -0.6475 C   0  0  2  0  0  0  0  0  0  0  0  0
    7.9009    2.4665   -0.5624 C   0  0  0  0  0  0  0  0  0  0  0  0
    8.1484    3.8273    0.6449 S   0  0  0  0  0  0  0  0  0  0  0  0
    7.0208    3.2706    1.9807 C   0  0  0  0  0  0  0  0  0  0  0  0
    5.6069    3.0566    1.5019 C   0  0  0  0  0  0  0  0  0  0  0  0
    4.8554    4.1379    1.0135 C   0  0  0  0  0  0  0  0  0  0  0  0
    3.5459    3.9379    0.5468 C   0  0  0  0  0  0  0  0  0  0  0  0
    2.9839    2.6525    0.5816 C   0  0  0  0  0  0  0  0  0  0  0  0
    3.7226    1.5666    1.0807 C   0  0  0  0  0  0  0  0  0  0  0  0
    5.0289    1.7771    1.5511 C   0  0  0  0  0  0  0  0  0  0  0  0
    3.1224    0.1885    1.0997 C   0  0  0  0  0  0  0  0  0  0  0  0
    3.2409   -0.5604   -0.5657 S   0  0  0  0  0  0  0  0  0  0  0  0
    4.5696   -1.7551   -0.1614 C   0  0  0  0  0  0  0  0  0  0  0  0
    4.8600   -2.7009   -1.3488 C   0  0  1  0  0  0  0  0  0  0  0  0
    6.2248   -3.2238   -1.2527 N   0  0  0  0  0  0  0  0  0  0  0  0
    6.7252   -3.8541   -0.0715 C   0  0  0  0  0  0  0  0  0  0  0  0
    6.2823   -4.9812    0.2756 O   0  0  0  0  0  0  0  0  0  0  0  0
    7.8247   -3.1944    0.7123 C   0  0  1  0  0  0  0  0  0  0  0  0
    7.5671   -3.2739    2.2180 C   0  0  0  0  0  0  0  0  0  0  0  0
    9.1120   -3.8153    0.3935 N   0  0  0  0  0  0  0  0  0  0  0  0
   10.2924   -3.1177   -0.0539 C   0  0  0  0  0  0  0  0  0  0  0  0
   11.4011   -3.7129    0.0269 O   0  0  0  0  0  0  0  0  0  0  0  0
   10.2793   -1.7121   -0.6293 C   0  0  1  0  0  0  0  0  0  0  0  0
    9.3856   -1.6376   -1.8794 C   0  0  0  0  0  0  0  0  0  0  0  0
    9.9502   -0.7357    0.4299 N   0  0  0  0  0  0  0  0  0  0  0  0
    8.9606    0.3062    0.3696 C   0  0  0  0  0  0  0  0  0  0  0  0
    8.0511    0.3115    1.2397 O   0  0  0  0  0  0  0  0  0  0  0  0
    3.8958   -3.8601   -1.5026 C   0  0  0  0  0  0  0  0  0  0  0  0
    4.1614   -4.7264   -2.3850 O   0  0  0  0  0  0  0  0  0  0  0  0
    2.6816   -3.9682   -0.7354 N   0  0  0  0  0  0  0  0  0  0  0  0
    2.1365   -5.2317   -0.2134 C   0  0  2  0  0  0  0  0  0  0  0  0
    3.2220   -6.0515    0.4891 C   0  0  0  0  0  0  0  0  0  0  0  0
    1.4412   -6.0554   -1.2787 C   0  0  0  0  0  0  0  0  0  0  0  0
    1.9601   -6.1518   -2.4251 O   0  0  0  0  0  0  0  0  0  0  0  0
    0.2488   -6.8169   -1.0150 N   0  0  0  0  0  0  0  0  0  0  0  0
   -0.3944   -6.9691    0.2932 C   0  0  2  0  0  0  0  0  0  0  0  0
   -0.7220   -8.4460    0.5400 C   0  0  0  0  0  0  0  0  0  0  0  0
   -1.6294   -6.1128    0.3383 C   0  0  0  0  0  0  0  0  0  0  0  0
   -1.6770   -5.1248    1.1211 O   0  0  0  0  0  0  0  0  0  0  0  0
   -2.7200   -6.3545   -0.5538 N   0  0  0  0  0  0  0  0  0  0  0  0
   -3.8442   -7.1979   -0.1557 C   0  0  2  0  0  0  0  0  0  0  0  0
   -4.2409   -8.1425   -1.2959 C   0  0  0  0  0  0  0  0  0  0  0  0
   -4.9991   -6.3359    0.2868 C   0  0  0  0  0  0  0  0  0  0  0  0
   -5.1452   -6.0958    1.5179 O   0  0  0  0  0  0  0  0  0  0  0  0
   -5.9356   -5.8087   -0.6615 N   0  0  0  0  0  0  0  0  0  0  0  0
   -7.3389   -5.5949   -0.2919 C   0  0  2  0  0  0  0  0  0  0  0  0
   -8.0282   -6.9497   -0.0848 C   0  0  0  0  0  0  0  0  0  0  0  0
   -8.0741   -4.8162   -1.3652 C   0  0  0  0  0  0  0  0  0  0  0  0
   -8.0676   -5.2642   -2.5429 O   0  0  0  0  0  0  0  0  0  0  0  0
   -8.8150   -3.6062   -1.0917 N   0  0  0  0  0  0  0  0  0  0  0  0
   -8.7932   -2.8810    0.1837 C   0  0  2  0  0  0  0  0  0  0  0  0
   -9.6920   -3.5693    1.2242 C   0  0  0  0  0  0  0  0  0  0  0  0
   -9.2638   -1.4592   -0.0206 C   0  0  0  0  0  0  0  0  0  0  0  0
  -10.4967   -1.2259   -0.1464 O   0  0  0  0  0  0  0  0  0  0  0  0
   -8.3074   -0.3824   -0.1013 N   0  0  0  0  0  0  0  0  0  0  0  0
   -8.5599    0.9880    0.3743 C   0  0  2  0  0  0  0  0  0  0  0  0
   -9.1463    0.9829    1.7929 C   0  0  0  0  0  0  0  0  0  0  0  0
   -9.4461    1.7693   -0.5762 C   0  0  0  0  0  0  0  0  0  0  0  0
  -10.5100    1.2508   -1.0098 O   0  0  0  0  0  0  0  0  0  0  0  0
   -9.1238    3.1011   -1.0005 N   0  0  0  0  0  0  0  0  0  0  0  0
   -8.5141    4.1182   -0.1287 C   0  0  2  0  0  0  0  0  0  0  0  0
   -9.6193    4.9170    0.5642 C   0  0  0  0  0  0  0  0  0  0  0  0
   -7.6289    5.0229   -0.9500 C   0  0  0  0  0  0  0  0  0  0  0  0
   -7.9939    5.3884   -2.1005 O   0  0  0  0  0  0  0  0  0  0  0  0
   -6.3341    5.4141   -0.4794 N   0  0  0  0  0  0  0  0  0  0  0  0
   -6.1493    6.1924    0.7523 C   0  0  2  0  0  0  0  0  0  0  0  0
   -6.8397    7.5587    0.6346 C   0  0  0  0  0  0  0  0  0  0  0  0
   -4.6772    6.3535    1.0818 C   0  0  0  0  0  0  0  0  0  0  0  0
   -4.2979    6.2273    2.2752 O   0  0  0  0  0  0  0  0  0  0  0  0
   -3.6868    6.5361    0.0603 N   0  0  0  0  0  0  0  0  0  0  0  0
   -3.5685    7.7654   -0.7272 C   0  0  2  0  0  0  0  0  0  0  0  0
   -3.5168    7.4434   -2.2209 C   0  0  0  0  0  0  0  0  0  0  0  0
   -2.3657    8.5867   -0.3081 C   0  0  0  0  0  0  0  0  0  0  0  0
   -2.5602    9.7796    0.0679 O   0  0  0  0  0  0  0  0  0  0  0  0
   -1.0099    8.1524   -0.5028 N   0  0  0  0  0  0  0  0  0  0  0  0
   -0.4631    6.8850   -0.0055 C   0  0  1  0  0  0  0  0  0  0  0  0
   -0.4021    5.8864   -1.1309 C   0  0  0  0  0  0  0  0  0  0  0  0
    0.1512    6.2438   -2.3977 N   0  0  0  0  0  0  0  0  0  0  0  0
   -0.8314    4.7122   -0.9506 O   0  0  0  0  0  0  0  0  0  0  0  0
    0.9419    7.1189    0.5764 C   0  0  0  0  0  0  0  0  0  0  0  0
    1.5918    5.6251    1.4180 S   0  0  0  0  0  0  0  0  0  0  0  0
    2.7210    5.1016    0.0770 C   0  0  0  0  0  0  0  0  0  0  0  0
   13.2239    2.5075    0.8500 H   0  0  0  0  0  0  0  0  0  0  0  0
   12.6884    3.3003   -0.6778 H   0  0  0  0  0  0  0  0  0  0  0  0
   12.3884    4.1131    0.9054 H   0  0  0  0  0  0  0  0  0  0  0  0
   10.8044    2.2401   -1.5872 H   0  0  0  0  0  0  0  0  0  0  0  0
    8.9088    0.9590   -1.6418 H   0  0  0  0  0  0  0  0  0  0  0  0
    7.8470    2.9721   -1.5537 H   0  0  0  0  0  0  0  0  0  0  0  0
    6.9267    1.9525   -0.4470 H   0  0  0  0  0  0  0  0  0  0  0  0
    7.0101    4.0516    2.7704 H   0  0  0  0  0  0  0  0  0  0  0  0
    7.4402    2.3603    2.4503 H   0  0  0  0  0  0  0  0  0  0  0  0
    5.2938    5.1278    0.9868 H   0  0  0  0  0  0  0  0  0  0  0  0
    1.9763    2.4926    0.2162 H   0  0  0  0  0  0  0  0  0  0  0  0
    5.5970    0.9424    1.9385 H   0  0  0  0  0  0  0  0  0  0  0  0
    2.0464    0.2584    1.3686 H   0  0  0  0  0  0  0  0  0  0  0  0
    3.6063   -0.4377    1.8781 H   0  0  0  0  0  0  0  0  0  0  0  0
    5.4842   -1.1656    0.0706 H   0  0  0  0  0  0  0  0  0  0  0  0
    4.3123   -2.3496    0.7407 H   0  0  0  0  0  0  0  0  0  0  0  0
    4.7943   -2.1020   -2.2863 H   0  0  0  0  0  0  0  0  0  0  0  0
    6.8508   -3.1773   -2.0913 H   0  0  0  0  0  0  0  0  0  0  0  0
    7.8241   -2.1278    0.4491 H   0  0  0  0  0  0  0  0  0  0  0  0
    7.5446   -4.3311    2.5564 H   0  0  0  0  0  0  0  0  0  0  0  0
    8.3750   -2.7481    2.7615 H   0  0  0  0  0  0  0  0  0  0  0  0
    6.5979   -2.7905    2.4677 H   0  0  0  0  0  0  0  0  0  0  0  0
    9.2218   -4.8275    0.6302 H   0  0  0  0  0  0  0  0  0  0  0  0
   11.3143   -1.4877   -0.9673 H   0  0  0  0  0  0  0  0  0  0  0  0
    8.3368   -1.3925   -1.6345 H   0  0  0  0  0  0  0  0  0  0  0  0
    9.7789   -0.8697   -2.5775 H   0  0  0  0  0  0  0  0  0  0  0  0
    9.4035   -2.6010   -2.4350 H   0  0  0  0  0  0  0  0  0  0  0  0
   10.4034   -0.8825    1.3590 H   0  0  0  0  0  0  0  0  0  0  0  0
    2.2683   -3.1011   -0.3374 H   0  0  0  0  0  0  0  0  0  0  0  0
    1.3935   -4.9450    0.5596 H   0  0  0  0  0  0  0  0  0  0  0  0
    3.9844   -6.4056   -0.2385 H   0  0  0  0  0  0  0  0  0  0  0  0
    3.7158   -5.4311    1.2661 H   0  0  0  0  0  0  0  0  0  0  0  0
    2.7740   -6.9393    0.9857 H   0  0  0  0  0  0  0  0  0  0  0  0
   -0.2200   -7.2624   -1.8364 H   0  0  0  0  0  0  0  0  0  0  0  0
    0.2877   -6.6772    1.1134 H   0  0  0  0  0  0  0  0  0  0  0  0
   -1.2545   -8.5646    1.5058 H   0  0  0  0  0  0  0  0  0  0  0  0
   -1.3447   -8.8578   -0.2752 H   0  0  0  0  0  0  0  0  0  0  0  0
    0.2205   -9.0327    0.5881 H   0  0  0  0  0  0  0  0  0  0  0  0
   -2.8297   -5.7191   -1.3763 H   0  0  0  0  0  0  0  0  0  0  0  0
   -3.5471   -7.8319    0.7079 H   0  0  0  0  0  0  0  0  0  0  0  0
   -5.1941   -8.6603   -1.0486 H   0  0  0  0  0  0  0  0  0  0  0  0
   -4.3602   -7.5923   -2.2501 H   0  0  0  0  0  0  0  0  0  0  0  0
   -3.4572   -8.9126   -1.4293 H   0  0  0  0  0  0  0  0  0  0  0  0
   -5.6234   -5.6463   -1.6442 H   0  0  0  0  0  0  0  0  0  0  0  0
   -7.3530   -5.0517    0.6669 H   0  0  0  0  0  0  0  0  0  0  0  0
   -9.1129   -6.8122    0.1313 H   0  0  0  0  0  0  0  0  0  0  0  0
   -7.9096   -7.5864   -0.9922 H   0  0  0  0  0  0  0  0  0  0  0  0
   -7.5639   -7.4767    0.7751 H   0  0  0  0  0  0  0  0  0  0  0  0
   -9.3159   -3.1745   -1.9052 H   0  0  0  0  0  0  0  0  0  0  0  0
   -7.7498   -2.8422    0.5662 H   0  0  0  0  0  0  0  0  0  0  0  0
   -9.6584   -3.0063    2.1825 H   0  0  0  0  0  0  0  0  0  0  0  0
  -10.7396   -3.6260    0.8636 H   0  0  0  0  0  0  0  0  0  0  0  0
   -9.3584   -4.6037    1.4384 H   0  0  0  0  0  0  0  0  0  0  0  0
   -7.3121   -0.6390   -0.2862 H   0  0  0  0  0  0  0  0  0  0  0  0
   -7.5741    1.4929    0.4304 H   0  0  0  0  0  0  0  0  0  0  0  0
   -9.1822    2.0173    2.1935 H   0  0  0  0  0  0  0  0  0  0  0  0
   -8.5030    0.3692    2.4586 H   0  0  0  0  0  0  0  0  0  0  0  0
  -10.1726    0.5624    1.7983 H   0  0  0  0  0  0  0  0  0  0  0  0
   -9.6435    3.4533   -1.8394 H   0  0  0  0  0  0  0  0  0  0  0  0
   -7.8948    3.6441    0.6582 H   0  0  0  0  0  0  0  0  0  0  0  0
  -10.3167    4.2241    1.0822 H   0  0  0  0  0  0  0  0  0  0  0  0
   -9.1805    5.5886    1.3324 H   0  0  0  0  0  0  0  0  0  0  0  0
  -10.1950    5.5232   -0.1702 H   0  0  0  0  0  0  0  0  0  0  0  0
   -5.5261    5.2435   -1.1228 H   0  0  0  0  0  0  0  0  0  0  0  0
   -6.6245    5.6396    1.5940 H   0  0  0  0  0  0  0  0  0  0  0  0
   -6.5271    8.2279    1.4632 H   0  0  0  0  0  0  0  0  0  0  0  0
   -7.9392    7.4348    0.6921 H   0  0  0  0  0  0  0  0  0  0  0  0
   -6.6197    8.0376   -0.3381 H   0  0  0  0  0  0  0  0  0  0  0  0
   -3.0277    5.7475   -0.1133 H   0  0  0  0  0  0  0  0  0  0  0  0
   -4.4650    8.3935   -0.5640 H   0  0  0  0  0  0  0  0  0  0  0  0
   -2.6018    6.8772   -2.4752 H   0  0  0  0  0  0  0  0  0  0  0  0
   -4.4006    6.8392   -2.5100 H   0  0  0  0  0  0  0  0  0  0  0  0
   -3.5343    8.3841   -2.8131 H   0  0  0  0  0  0  0  0  0  0  0  0
   -0.3302    8.9036   -0.7599 H   0  0  0  0  0  0  0  0  0  0  0  0
   -1.0986    6.4998    0.8216 H   0  0  0  0  0  0  0  0  0  0  0  0
    0.3755    7.2359   -2.6173 H   0  0  0  0  0  0  0  0  0  0  0  0
    0.1889    5.5439   -3.1718 H   0  0  0  0  0  0  0  0  0  0  0  0
    1.6416    7.4869   -0.2030 H   0  0  0  0  0  0  0  0  0  0  0  0
    0.8732    7.9140    1.3471 H   0  0  0  0  0  0  0  0  0  0  0  0
    2.1314    4.8008   -0.8152 H   0  0  0  0  0  0  0  0  0  0  0  0
    3.3811    5.9456   -0.2174 H   0  0  0  0  0  0  0  0  0  0  0  0
  1  2  1  0
  2  3  2  0
  2  4  1  0
  4  5  1  0
  5  6  1  0
  6  7  1  0
  7  8  1  0
  8  9  1  0
  9 10  2  0
 10 11  1  0
 11 12  2  0
 12 13  1  0
 13 14  2  0
 13 15  1  0
 15 16  1  0
 16 17  1  0
 17 18  1  0
 18 19  1  0
 19 20  1  0
 20 21  2  0
 20 22  1  0
 22 23  1  0
 22 24  1  0
 24 25  1  0
 25 26  2  0
 25 27  1  0
 27 28  1  0
 27 29  1  0
 29 30  1  0
 30 31  2  0
 18 32  1  0
 32 33  2  0
 32 34  1  0
 34 35  1  0
 35 36  1  0
 35 37  1  0
 37 38  2  0
 37 39  1  0
 39 40  1  0
 40 41  1  0
 40 42  1  0
 42 43  2  0
 42 44  1  0
 44 45  1  0
 45 46  1  0
 45 47  1  0
 47 48  2  0
 47 49  1  0
 49 50  1  0
 50 51  1  0
 50 52  1  0
 52 53  2  0
 52 54  1  0
 54 55  1  0
 55 56  1  0
 55 57  1  0
 57 58  2  0
 57 59  1  0
 59 60  1  0
 60 61  1  0
 60 62  1  0
 62 63  2  0
 62 64  1  0
 64 65  1  0
 65 66  1  0
 65 67  1  0
 67 68  2  0
 67 69  1  0
 69 70  1  0
 70 71  1  0
 70 72  1  0
 72 73  2  0
 72 74  1  0
 74 75  1  0
 75 76  1  0
 75 77  1  0
 77 78  2  0
 77 79  1  0
 79 80  1  0
 80 81  1  0
 81 82  1  0
 81 83  2  0
 80 84  1  0
 84 85  1  0
 85 86  1  0
 30  5  1  0
 14  9  1  0
 86 11  1  0
  1 87  1  0
  1 88  1  0
  1 89  1  0
  4 90  1  0
  5 91  1  6
  6 92  1  0
  6 93  1  0
  8 94  1  0
  8 95  1  0
 10 96  1  0
 12 97  1  0
 14 98  1  0
 15 99  1  0
 15100  1  0
 17101  1  0
 17102  1  0
 18103  1  6
 19104  1  0
 22105  1  6
 23106  1  0
 23107  1  0
 23108  1  0
 24109  1  0
 27110  1  6
 28111  1  0
 28112  1  0
 28113  1  0
 29114  1  0
 34115  1  0
 35116  1  1
 36117  1  0
 36118  1  0
 36119  1  0
 39120  1  0
 40121  1  1
 41122  1  0
 41123  1  0
 41124  1  0
 44125  1  0
 45126  1  1
 46127  1  0
 46128  1  0
 46129  1  0
 49130  1  0
 50131  1  1
 51132  1  0
 51133  1  0
 51134  1  0
 54135  1  0
 55136  1  1
 56137  1  0
 56138  1  0
 56139  1  0
 59140  1  0
 60141  1  1
 61142  1  0
 61143  1  0
 61144  1  0
 64145  1  0
 65146  1  1
 66147  1  0
 66148  1  0
 66149  1  0
 69150  1  0
 70151  1  1
 71152  1  0
 71153  1  0
 71154  1  0
 74155  1  0
 75156  1  6
 76157  1  0
 76158  1  0
 76159  1  0
 79160  1  0
 80161  1  1
 82162  1  0
 82163  1  0
 84164  1  0
 84165  1  0
 86166  1  0
 86167  1  0
M  END
