
     RDKit          3D

167169  0  0  0  0  0  0  0  0999 V2000
  -12.3883   -3.7590   -1.2554 C   0  0  0  0  0  0  0  0  0  0  0  0
  -11.7696   -3.8521    0.1053 C   0  0  0  0  0  0  0  0  0  0  0  0
  -12.3786   -4.4912    1.0078 O   0  0  0  0  0  0  0  0  0  0  0  0
  -10.5033   -3.2401    0.4109 N   0  0  0  0  0  0  0  0  0  0  0  0
   -9.7465   -2.3854   -0.5200 C   0  0  2  0  0  0  0  0  0  0  0  0
   -8.3397   -2.9651   -0.7569 C   0  0  0  0  0  0  0  0  0  0  0  0
   -7.3182   -2.9405    0.7548 S   0  0  0  0  0  0  0  0  0  0  0  0
   -5.8477   -3.7261   -0.0051 C   0  0  0  0  0  0  0  0  0  0  0  0
   -4.5944   -3.1612    0.6052 C   0  0  0  0  0  0  0  0  0  0  0  0
   -4.3593   -1.7818    0.5506 C   0  0  0  0  0  0  0  0  0  0  0  0
   -3.2099   -1.2297    1.1184 C   0  0  0  0  0  0  0  0  0  0  0  0
   -2.2533   -2.0743    1.7058 C   0  0  0  0  0  0  0  0  0  0  0  0
   -2.4784   -3.4577    1.7770 C   0  0  0  0  0  0  0  0  0  0  0  0
   -3.6531   -3.9974    1.2269 C   0  0  0  0  0  0  0  0  0  0  0  0
   -1.4785   -4.3449    2.4624 C   0  0  0  0  0  0  0  0  0  0  0  0
   -0.0617   -4.7074    1.3589 S   0  0  0  0  0  0  0  0  0  0  0  0
   -0.8906   -6.0078    0.3591 C   0  0  0  0  0  0  0  0  0  0  0  0
    0.1640   -6.9238   -0.2889 C   0  0  1  0  0  0  0  0  0  0  0  0
   -0.5116   -8.0894   -0.9652 C   0  0  0  0  0  0  0  0  0  0  0  0
   -0.9459   -9.2109   -0.1949 N   0  0  0  0  0  0  0  0  0  0  0  0
   -0.7061   -8.0831   -2.2141 O   0  0  0  0  0  0  0  0  0  0  0  0
    0.9798   -6.1833   -1.2611 N   0  0  0  0  0  0  0  0  0  0  0  0
    2.2372   -6.6560   -1.7723 C   0  0  0  0  0  0  0  0  0  0  0  0
    2.7601   -6.0419   -2.7433 O   0  0  0  0  0  0  0  0  0  0  0  0
    3.0013   -7.7854   -1.1073 C   0  0  1  0  0  0  0  0  0  0  0  0
    3.9670   -8.4807   -2.0794 C   0  0  0  0  0  0  0  0  0  0  0  0
    3.7326   -7.3422    0.0886 N   0  0  0  0  0  0  0  0  0  0  0  0
    4.3606   -6.0528    0.2326 C   0  0  0  0  0  0  0  0  0  0  0  0
    3.7368   -5.0105   -0.1172 O   0  0  0  0  0  0  0  0  0  0  0  0
    5.7008   -5.8717    0.9159 C   0  0  1  0  0  0  0  0  0  0  0  0
    6.4251   -7.1908    1.2160 C   0  0  0  0  0  0  0  0  0  0  0  0
    6.5647   -5.0332    0.0786 N   0  0  0  0  0  0  0  0  0  0  0  0
    6.9441   -3.7202    0.4907 C   0  0  0  0  0  0  0  0  0  0  0  0
    6.0526   -2.8873    0.8273 O   0  0  0  0  0  0  0  0  0  0  0  0
    8.3872   -3.2881    0.4644 C   0  0  1  0  0  0  0  0  0  0  0  0
    9.2979   -4.3836    1.0234 C   0  0  0  0  0  0  0  0  0  0  0  0
    8.7940   -2.9630   -0.9107 N   0  0  0  0  0  0  0  0  0  0  0  0
    9.5525   -1.8001   -1.2834 C   0  0  0  0  0  0  0  0  0  0  0  0
   10.2982   -1.8687   -2.3032 O   0  0  0  0  0  0  0  0  0  0  0  0
    9.5334   -0.5212   -0.4696 C   0  0  1  0  0  0  0  0  0  0  0  0
   10.7024   -0.5378    0.5224 C   0  0  0  0  0  0  0  0  0  0  0  0
    9.6219    0.6632   -1.3404 N   0  0  0  0  0  0  0  0  0  0  0  0
    9.4927    2.0276   -0.8881 C   0  0  0  0  0  0  0  0  0  0  0  0
    9.9604    2.9454   -1.6156 O   0  0  0  0  0  0  0  0  0  0  0  0
    8.7957    2.4027    0.4027 C   0  0  1  0  0  0  0  0  0  0  0  0
    9.6746    3.3270    1.2555 C   0  0  0  0  0  0  0  0  0  0  0  0
    7.4928    3.0253    0.1576 N   0  0  0  0  0  0  0  0  0  0  0  0
    7.3095    4.1910   -0.6516 C   0  0  0  0  0  0  0  0  0  0  0  0
    7.4436    4.1148   -1.8953 O   0  0  0  0  0  0  0  0  0  0  0  0
    6.8788    5.4867   -0.0120 C   0  0  1  0  0  0  0  0  0  0  0  0
    7.9159    6.5777   -0.3013 C   0  0  0  0  0  0  0  0  0  0  0  0
    5.5518    5.9094   -0.4831 N   0  0  0  0  0  0  0  0  0  0  0  0
    4.3625    5.1394   -0.2456 C   0  0  0  0  0  0  0  0  0  0  0  0
    4.4223    3.8823   -0.1943 O   0  0  0  0  0  0  0  0  0  0  0  0
    3.0457    5.8317    0.0147 C   0  0  1  0  0  0  0  0  0  0  0  0
    3.1735    6.6419    1.3093 C   0  0  0  0  0  0  0  0  0  0  0  0
    2.6796    6.6998   -1.1188 N   0  0  0  0  0  0  0  0  0  0  0  0
    1.3910    7.3133   -1.3338 C   0  0  0  0  0  0  0  0  0  0  0  0
    1.2433    8.0647   -2.3362 O   0  0  0  0  0  0  0  0  0  0  0  0
    0.2241    7.1532   -0.3800 C   0  0  1  0  0  0  0  0  0  0  0  0
    0.0064    8.4798    0.3763 C   0  0  0  0  0  0  0  0  0  0  0  0
   -0.9961    6.7956   -1.1121 N   0  0  0  0  0  0  0  0  0  0  0  0
   -2.2506    6.4651   -0.4908 C   0  0  0  0  0  0  0  0  0  0  0  0
   -3.3048    6.5774   -1.1715 O   0  0  0  0  0  0  0  0  0  0  0  0
   -2.3459    5.8979    0.9118 C   0  0  1  0  0  0  0  0  0  0  0  0
   -3.5050    6.5243    1.6980 C   0  0  0  0  0  0  0  0  0  0  0  0
   -2.4613    4.4385    0.8569 N   0  0  0  0  0  0  0  0  0  0  0  0
   -3.6734    3.7600    0.5274 C   0  0  0  0  0  0  0  0  0  0  0  0
   -4.5371    3.5543    1.4218 O   0  0  0  0  0  0  0  0  0  0  0  0
   -3.8971    3.2570   -0.8770 C   0  0  1  0  0  0  0  0  0  0  0  0
   -4.1963    1.7515   -0.9233 C   0  0  0  0  0  0  0  0  0  0  0  0
   -2.6532    0.7975   -0.6232 S   0  0  0  0  0  0  0  0  0  0  0  0
   -3.0057    0.2591    1.0940 C   0  0  0  0  0  0  0  0  0  0  0  0
   -4.9272    4.0296   -1.5861 N   0  0  0  0  0  0  0  0  0  0  0  0
   -6.0618    4.6576   -0.9665 C   0  0  0  0  0  0  0  0  0  0  0  0
   -6.2004    5.9091   -1.0909 O   0  0  0  0  0  0  0  0  0  0  0  0
   -7.1824    3.8419   -0.3662 C   0  0  1  0  0  0  0  0  0  0  0  0
   -7.7884    4.5590    0.8515 C   0  0  0  0  0  0  0  0  0  0  0  0
   -8.2129    3.6491   -1.3893 N   0  0  0  0  0  0  0  0  0  0  0  0
   -8.8677    2.4001   -1.6487 C   0  0  0  0  0  0  0  0  0  0  0  0
   -9.2097    2.1432   -2.8314 O   0  0  0  0  0  0  0  0  0  0  0  0
   -9.3553    1.5155   -0.5205 C   0  0  1  0  0  0  0  0  0  0  0  0
  -10.7609    1.9834   -0.1174 C   0  0  0  0  0  0  0  0  0  0  0  0
   -9.3810    0.1047   -0.9278 N   0  0  0  0  0  0  0  0  0  0  0  0
   -9.6870   -0.9630   -0.0159 C   0  0  0  0  0  0  0  0  0  0  0  0
   -9.9303   -0.7124    1.1915 O   0  0  0  0  0  0  0  0  0  0  0  0
  -11.7082   -4.2074   -2.0135 H   0  0  0  0  0  0  0  0  0  0  0  0
  -12.5707   -2.6897   -1.5043 H   0  0  0  0  0  0  0  0  0  0  0  0
  -13.3616   -4.2937   -1.2865 H   0  0  0  0  0  0  0  0  0  0  0  0
  -10.1077   -3.3943    1.3633 H   0  0  0  0  0  0  0  0  0  0  0  0
  -10.2454   -2.3546   -1.5110 H   0  0  0  0  0  0  0  0  0  0  0  0
   -8.4345   -4.0141   -1.1126 H   0  0  0  0  0  0  0  0  0  0  0  0
   -7.8379   -2.3712   -1.5457 H   0  0  0  0  0  0  0  0  0  0  0  0
   -5.8220   -3.5490   -1.1015 H   0  0  0  0  0  0  0  0  0  0  0  0
   -5.9135   -4.8245    0.1616 H   0  0  0  0  0  0  0  0  0  0  0  0
   -5.0729   -1.1329    0.0595 H   0  0  0  0  0  0  0  0  0  0  0  0
   -1.3529   -1.6562    2.1450 H   0  0  0  0  0  0  0  0  0  0  0  0
   -3.8322   -5.0702    1.2886 H   0  0  0  0  0  0  0  0  0  0  0  0
   -1.0904   -3.8238    3.3655 H   0  0  0  0  0  0  0  0  0  0  0  0
   -1.9478   -5.2869    2.8298 H   0  0  0  0  0  0  0  0  0  0  0  0
   -1.5232   -5.5266   -0.4190 H   0  0  0  0  0  0  0  0  0  0  0  0
   -1.5490   -6.6259    1.0132 H   0  0  0  0  0  0  0  0  0  0  0  0
    0.8136   -7.3133    0.5236 H   0  0  0  0  0  0  0  0  0  0  0  0
   -1.3952  -10.0327   -0.6584 H   0  0  0  0  0  0  0  0  0  0  0  0
   -0.8112   -9.2323    0.8405 H   0  0  0  0  0  0  0  0  0  0  0  0
    0.5954   -5.3055   -1.6739 H   0  0  0  0  0  0  0  0  0  0  0  0
    2.2683   -8.5610   -0.7944 H   0  0  0  0  0  0  0  0  0  0  0  0
    4.4329   -9.3597   -1.5819 H   0  0  0  0  0  0  0  0  0  0  0  0
    4.7774   -7.7859   -2.3889 H   0  0  0  0  0  0  0  0  0  0  0  0
    3.4240   -8.8419   -2.9765 H   0  0  0  0  0  0  0  0  0  0  0  0
    3.9987   -8.1004    0.7559 H   0  0  0  0  0  0  0  0  0  0  0  0
    5.5159   -5.3620    1.8882 H   0  0  0  0  0  0  0  0  0  0  0  0
    6.5115   -7.8127    0.2987 H   0  0  0  0  0  0  0  0  0  0  0  0
    5.8875   -7.7581    2.0070 H   0  0  0  0  0  0  0  0  0  0  0  0
    7.4512   -6.9869    1.5979 H   0  0  0  0  0  0  0  0  0  0  0  0
    7.0146   -5.4507   -0.7676 H   0  0  0  0  0  0  0  0  0  0  0  0
    8.4939   -2.4115    1.1339 H   0  0  0  0  0  0  0  0  0  0  0  0
    8.9896   -4.6483    2.0577 H   0  0  0  0  0  0  0  0  0  0  0  0
    9.2535   -5.2933    0.3930 H   0  0  0  0  0  0  0  0  0  0  0  0
   10.3473   -4.0176    1.0558 H   0  0  0  0  0  0  0  0  0  0  0  0
    8.7033   -3.7224   -1.6249 H   0  0  0  0  0  0  0  0  0  0  0  0
    8.5674   -0.4771    0.0785 H   0  0  0  0  0  0  0  0  0  0  0  0
   11.6678   -0.5414   -0.0282 H   0  0  0  0  0  0  0  0  0  0  0  0
   10.6777    0.3510    1.1774 H   0  0  0  0  0  0  0  0  0  0  0  0
   10.6664   -1.4341    1.1777 H   0  0  0  0  0  0  0  0  0  0  0  0
    9.9158    0.5400   -2.3391 H   0  0  0  0  0  0  0  0  0  0  0  0
    8.6218    1.5001    1.0198 H   0  0  0  0  0  0  0  0  0  0  0  0
    9.8917    4.2691    0.7131 H   0  0  0  0  0  0  0  0  0  0  0  0
   10.6380    2.8278    1.4904 H   0  0  0  0  0  0  0  0  0  0  0  0
    9.1592    3.5667    2.2088 H   0  0  0  0  0  0  0  0  0  0  0  0
    6.7011    2.7413    0.7816 H   0  0  0  0  0  0  0  0  0  0  0  0
    6.8332    5.3481    1.0869 H   0  0  0  0  0  0  0  0  0  0  0  0
    8.8968    6.3124    0.1470 H   0  0  0  0  0  0  0  0  0  0  0  0
    7.5879    7.5410    0.1424 H   0  0  0  0  0  0  0  0  0  0  0  0
    8.0428    6.7197   -1.3960 H   0  0  0  0  0  0  0  0  0  0  0  0
    5.4291    6.9010   -0.7811 H   0  0  0  0  0  0  0  0  0  0  0  0
    2.2715    5.0486    0.1409 H   0  0  0  0  0  0  0  0  0  0  0  0
    3.8518    7.5131    1.1669 H   0  0  0  0  0  0  0  0  0  0  0  0
    2.1917    7.0034    1.6497 H   0  0  0  0  0  0  0  0  0  0  0  0
    3.5806    5.9970    2.1197 H   0  0  0  0  0  0  0  0  0  0  0  0
    3.4052    6.9095   -1.8467 H   0  0  0  0  0  0  0  0  0  0  0  0
    0.4397    6.3469    0.3448 H   0  0  0  0  0  0  0  0  0  0  0  0
    0.9184    8.7713    0.9361 H   0  0  0  0  0  0  0  0  0  0  0  0
   -0.2440    9.2930   -0.3385 H   0  0  0  0  0  0  0  0  0  0  0  0
   -0.8276    8.3842    1.1006 H   0  0  0  0  0  0  0  0  0  0  0  0
   -1.0067    6.8829   -2.1551 H   0  0  0  0  0  0  0  0  0  0  0  0
   -1.4313    6.1379    1.4872 H   0  0  0  0  0  0  0  0  0  0  0  0
   -3.3424    7.6161    1.8127 H   0  0  0  0  0  0  0  0  0  0  0  0
   -4.4742    6.3565    1.1860 H   0  0  0  0  0  0  0  0  0  0  0  0
   -3.5586    6.0733    2.7147 H   0  0  0  0  0  0  0  0  0  0  0  0
   -1.5972    3.8600    0.9840 H   0  0  0  0  0  0  0  0  0  0  0  0
   -2.9495    3.4112   -1.4320 H   0  0  0  0  0  0  0  0  0  0  0  0
   -4.5519    1.4889   -1.9416 H   0  0  0  0  0  0  0  0  0  0  0  0
   -5.0057    1.4731   -0.2234 H   0  0  0  0  0  0  0  0  0  0  0  0
   -2.1453    0.5529    1.7354 H   0  0  0  0  0  0  0  0  0  0  0  0
   -3.8953    0.7665    1.5276 H   0  0  0  0  0  0  0  0  0  0  0  0
   -4.6373    4.4398   -2.5032 H   0  0  0  0  0  0  0  0  0  0  0  0
   -6.7886    2.8620   -0.0362 H   0  0  0  0  0  0  0  0  0  0  0  0
   -8.2780    5.5065    0.5407 H   0  0  0  0  0  0  0  0  0  0  0  0
   -7.0041    4.7882    1.6059 H   0  0  0  0  0  0  0  0  0  0  0  0
   -8.5548    3.9147    1.3331 H   0  0  0  0  0  0  0  0  0  0  0  0
   -8.4787    4.4611   -1.9893 H   0  0  0  0  0  0  0  0  0  0  0  0
   -8.6859    1.6168    0.3532 H   0  0  0  0  0  0  0  0  0  0  0  0
  -10.7607    3.0760    0.1035 H   0  0  0  0  0  0  0  0  0  0  0  0
  -11.4881    1.7727   -0.9322 H   0  0  0  0  0  0  0  0  0  0  0  0
  -11.1006    1.4651    0.8023 H   0  0  0  0  0  0  0  0  0  0  0  0
   -9.1031   -0.1629   -1.9043 H   0  0  0  0  0  0  0  0  0  0  0  0
  1  2  1  0
  2  3  2  0
  2  4  1  0
  4  5  1  0
  5  6  1  0
  6  7  1  0
  7  8  1  0
  8  9  1  0
  9 10  2  0
 10 11  1  0
 11 12  2  0
 12 13  1  0
 13 14  2  0
 13 15  1  0
 15 16  1  0
 16 17  1  0
 17 18  1  0
 18 19  1  0
 19 20  1  0
 19 21  2  0
 18 22  1  0
 22 23  1  0
 23 24  2  0
 23 25  1  0
 25 26  1  0
 25 27  1  0
 27 28  1  0
 28 29  2  0
 28 30  1  0
 30 31  1  0
 30 32  1  0
 32 33  1  0
 33 34  2  0
 33 35  1  0
 35 36  1  0
 35 37  1  0
 37 38  1  0
 38 39  2  0
 38 40  1  0
 40 41  1  0
 40 42  1  0
 42 43  1  0
 43 44  2  0
 43 45  1  0
 45 46  1  0
 45 47  1  0
 47 48  1  0
 48 49  2  0
 48 50  1  0
 50 51  1  0
 50 52  1  0
 52 53  1  0
 53 54  2  0
 53 55  1  0
 55 56  1  0
 55 57  1  0
 57 58  1  0
 58 59  2  0
 58 60  1  0
 60 61  1  0
 60 62  1  0
 62 63  1  0
 63 64  2  0
 63 65  1  0
 65 66  1  0
 65 67  1  0
 67 68  1  0
 68 69  2  0
 68 70  1  0
 70 71  1  0
 71 72  1  0
 72 73  1  0
 70 74  1  0
 74 75  1  0
 75 76  2  0
 75 77  1  0
 77 78  1  0
 77 79  1  0
 79 80  1  0
 80 81  2  0
 80 82  1  0
 82 83  1  0
 82 84  1  0
 84 85  1  0
 85 86  2  0
 85  5  1  0
 14  9  1  0
 73 11  1  0
  1 87  1  0
  1 88  1  0
  1 89  1  0
  4 90  1  0
  5 91  1  6
  6 92  1  0
  6 93  1  0
  8 94  1  0
  8 95  1  0
 10 96  1  0
 12 97  1  0
 14 98  1  0
 15 99  1  0
 15100  1  0
 17101  1  0
 17102  1  0
 18103  1  1
 20104  1  0
 20105  1  0
 22106  1  0
 25107  1  1
 26108  1  0
 26109  1  0
 26110  1  0
 27111  1  0
 30112  1  1
 31113  1  0
 31114  1  0
 31115  1  0
 32116  1  0
 35117  1  1
 36118  1  0
 36119  1  0
 36120  1  0
 37121  1  0
 40122  1  1
 41123  1  0
 41124  1  0
 41125  1  0
 42126  1  0
 45127  1  1
 46128  1  0
 46129  1  0
 46130  1  0
 47131  1  0
 50132  1  1
 51133  1  0
 51134  1  0
 51135  1  0
 52136  1  0
 55137  1  1
 56138  1  0
 56139  1  0
 56140  1  0
 57141  1  0
 60142  1  1
 61143  1  0
 61144  1  0
 61145  1  0
 62146  1  0
 65147  1  1
 66148  1  0
 66149  1  0
 66150  1  0
 67151  1  0
 70152  1  6
 71153  1  0
 71154  1  0
 73155  1  0
 73156  1  0
 74157  1  0
 77158  1  1
 78159  1  0
 78160  1  0
 78161  1  0
 79162  1  0
 82163  1  1
 83164  1  0
 83165  1  0
 83166  1  0
 84167  1  0
M  END
