
     RDKit          3D

167169  0  0  0  0  0  0  0  0999 V2000
  -10.5874   -4.9894   -0.2242 C   0  0  0  0  0  0  0  0  0  0  0  0
  -10.6846   -4.3692    1.1419 C   0  0  0  0  0  0  0  0  0  0  0  0
  -11.4500   -4.9142    1.9816 O   0  0  0  0  0  0  0  0  0  0  0  0
   -9.9510   -3.1890    1.5409 N   0  0  0  0  0  0  0  0  0  0  0  0
   -9.1752   -2.2463    0.7119 C   0  0  1  0  0  0  0  0  0  0  0  0
   -8.1399   -2.9222   -0.1990 C   0  0  0  0  0  0  0  0  0  0  0  0
   -7.1880   -4.1979    0.7050 S   0  0  0  0  0  0  0  0  0  0  0  0
   -5.7941   -3.1282    1.2170 C   0  0  0  0  0  0  0  0  0  0  0  0
   -4.7813   -2.9654    0.1060 C   0  0  0  0  0  0  0  0  0  0  0  0
   -4.3080   -1.6908   -0.2508 C   0  0  0  0  0  0  0  0  0  0  0  0
   -3.2990   -1.5518   -1.2235 C   0  0  0  0  0  0  0  0  0  0  0  0
   -2.8401   -2.6934   -1.8989 C   0  0  0  0  0  0  0  0  0  0  0  0
   -3.3090   -3.9657   -1.5599 C   0  0  0  0  0  0  0  0  0  0  0  0
   -4.2646   -4.0966   -0.5421 C   0  0  0  0  0  0  0  0  0  0  0  0
   -2.8522   -5.1857   -2.3261 C   0  0  0  0  0  0  0  0  0  0  0  0
   -1.0266   -5.3109   -2.4125 S   0  0  0  0  0  0  0  0  0  0  0  0
   -0.7287   -5.6089   -0.6284 C   0  0  0  0  0  0  0  0  0  0  0  0
   -0.2110   -7.0247   -0.3329 C   0  0  1  0  0  0  0  0  0  0  0  0
   -1.2392   -8.0773   -0.6794 C   0  0  0  0  0  0  0  0  0  0  0  0
   -1.9505   -8.7651    0.3509 N   0  0  0  0  0  0  0  0  0  0  0  0
   -1.4746   -8.3643   -1.8865 O   0  0  0  0  0  0  0  0  0  0  0  0
    1.0471   -7.2911   -1.0371 N   0  0  0  0  0  0  0  0  0  0  0  0
    2.2642   -7.5798   -0.3434 C   0  0  0  0  0  0  0  0  0  0  0  0
    2.9011   -8.6282   -0.6426 O   0  0  0  0  0  0  0  0  0  0  0  0
    2.8182   -6.6349    0.6965 C   0  0  1  0  0  0  0  0  0  0  0  0
    2.6607   -7.2161    2.1065 C   0  0  0  0  0  0  0  0  0  0  0  0
    4.2403   -6.3935    0.4365 N   0  0  0  0  0  0  0  0  0  0  0  0
    4.8741   -5.1265    0.6995 C   0  0  0  0  0  0  0  0  0  0  0  0
    4.1732   -4.0843    0.8349 O   0  0  0  0  0  0  0  0  0  0  0  0
    6.3631   -5.0324    0.9120 C   0  0  1  0  0  0  0  0  0  0  0  0
    6.7269   -5.6117    2.2820 C   0  0  0  0  0  0  0  0  0  0  0  0
    7.0852   -5.7546   -0.1437 N   0  0  0  0  0  0  0  0  0  0  0  0
    8.0927   -5.1816   -0.9989 C   0  0  0  0  0  0  0  0  0  0  0  0
    8.9998   -5.9317   -1.4519 O   0  0  0  0  0  0  0  0  0  0  0  0
    8.1102   -3.7257   -1.4082 C   0  0  1  0  0  0  0  0  0  0  0  0
    6.7403   -3.2866   -1.9571 C   0  0  0  0  0  0  0  0  0  0  0  0
    8.5993   -2.8903   -0.3086 N   0  0  0  0  0  0  0  0  0  0  0  0
    8.4753   -1.4580   -0.3132 C   0  0  0  0  0  0  0  0  0  0  0  0
    7.3233   -0.9368   -0.3029 O   0  0  0  0  0  0  0  0  0  0  0  0
    9.6783   -0.5457   -0.2715 C   0  0  1  0  0  0  0  0  0  0  0  0
   11.0122   -1.2762   -0.4857 C   0  0  0  0  0  0  0  0  0  0  0  0
    9.5287    0.4898   -1.3048 N   0  0  0  0  0  0  0  0  0  0  0  0
    9.0889    1.8396   -1.0812 C   0  0  0  0  0  0  0  0  0  0  0  0
    8.9213    2.5923   -2.0798 O   0  0  0  0  0  0  0  0  0  0  0  0
    8.8817    2.4152    0.3048 C   0  0  1  0  0  0  0  0  0  0  0  0
   10.2333    2.8461    0.8789 C   0  0  0  0  0  0  0  0  0  0  0  0
    7.9625    3.5599    0.2545 N   0  0  0  0  0  0  0  0  0  0  0  0
    6.5520    3.3937    0.0334 C   0  0  0  0  0  0  0  0  0  0  0  0
    6.0951    2.2588   -0.2705 O   0  0  0  0  0  0  0  0  0  0  0  0
    5.6027    4.5487    0.2360 C   0  0  1  0  0  0  0  0  0  0  0  0
    5.6047    4.9366    1.7232 C   0  0  0  0  0  0  0  0  0  0  0  0
    5.9836    5.6834   -0.6147 N   0  0  0  0  0  0  0  0  0  0  0  0
    5.1581    6.8303   -0.9121 C   0  0  0  0  0  0  0  0  0  0  0  0
    5.6147    7.7053   -1.6986 O   0  0  0  0  0  0  0  0  0  0  0  0
    3.8055    7.0679   -0.2708 C   0  0  1  0  0  0  0  0  0  0  0  0
    3.9386    8.1898    0.7656 C   0  0  0  0  0  0  0  0  0  0  0  0
    2.8068    7.4339   -1.2852 N   0  0  0  0  0  0  0  0  0  0  0  0
    1.3789    7.4621   -1.0786 C   0  0  0  0  0  0  0  0  0  0  0  0
    0.6441    7.8905   -2.0115 O   0  0  0  0  0  0  0  0  0  0  0  0
    0.7091    6.9692    0.1878 C   0  0  1  0  0  0  0  0  0  0  0  0
    0.0679    8.1580    0.9237 C   0  0  0  0  0  0  0  0  0  0  0  0
   -0.2857    5.9458   -0.1621 N   0  0  0  0  0  0  0  0  0  0  0  0
   -1.3170    5.5264    0.7406 C   0  0  0  0  0  0  0  0  0  0  0  0
   -1.0600    4.6447    1.6070 O   0  0  0  0  0  0  0  0  0  0  0  0
   -2.6842    6.1738    0.7074 C   0  0  1  0  0  0  0  0  0  0  0  0
   -3.0624    6.7026   -0.6859 C   0  0  0  0  0  0  0  0  0  0  0  0
   -3.7207    5.2826    1.2575 N   0  0  0  0  0  0  0  0  0  0  0  0
   -4.0054    3.9377    0.8304 C   0  0  0  0  0  0  0  0  0  0  0  0
   -4.3386    3.0920    1.7063 O   0  0  0  0  0  0  0  0  0  0  0  0
   -3.9729    3.5277   -0.6280 C   0  0  1  0  0  0  0  0  0  0  0  0
   -4.1824    2.0190   -0.8838 C   0  0  0  0  0  0  0  0  0  0  0  0
   -2.7449    1.0538   -0.2686 S   0  0  0  0  0  0  0  0  0  0  0  0
   -2.6975   -0.2153   -1.5995 C   0  0  0  0  0  0  0  0  0  0  0  0
   -4.9214    4.3118   -1.4332 N   0  0  0  0  0  0  0  0  0  0  0  0
   -6.3531    4.4068   -1.2775 C   0  0  0  0  0  0  0  0  0  0  0  0
   -7.0084    5.0170   -2.1683 O   0  0  0  0  0  0  0  0  0  0  0  0
   -7.1062    3.8641   -0.0860 C   0  0  1  0  0  0  0  0  0  0  0  0
   -7.4487    4.9946    0.8811 C   0  0  0  0  0  0  0  0  0  0  0  0
   -8.3333    3.2047   -0.5302 N   0  0  0  0  0  0  0  0  0  0  0  0
   -8.3452    1.8030   -0.8179 C   0  0  0  0  0  0  0  0  0  0  0  0
   -8.1251    1.4113   -1.9960 O   0  0  0  0  0  0  0  0  0  0  0  0
   -8.6532    0.7799    0.2494 C   0  0  1  0  0  0  0  0  0  0  0  0
   -8.7714    1.3939    1.6476 C   0  0  0  0  0  0  0  0  0  0  0  0
   -9.9068    0.0975   -0.0861 N   0  0  0  0  0  0  0  0  0  0  0  0
  -10.0907   -1.3274   -0.0682 C   0  0  0  0  0  0  0  0  0  0  0  0
  -11.0569   -1.8189   -0.7162 O   0  0  0  0  0  0  0  0  0  0  0  0
  -10.8861   -4.2751   -1.0108 H   0  0  0  0  0  0  0  0  0  0  0  0
  -11.2551   -5.8706   -0.2873 H   0  0  0  0  0  0  0  0  0  0  0  0
   -9.5615   -5.3537   -0.4002 H   0  0  0  0  0  0  0  0  0  0  0  0
  -10.0080   -2.9492    2.5610 H   0  0  0  0  0  0  0  0  0  0  0  0
   -8.5974   -1.6295    1.4252 H   0  0  0  0  0  0  0  0  0  0  0  0
   -7.4498   -2.1565   -0.6155 H   0  0  0  0  0  0  0  0  0  0  0  0
   -8.6310   -3.3861   -1.0779 H   0  0  0  0  0  0  0  0  0  0  0  0
   -6.1714   -2.1490    1.5772 H   0  0  0  0  0  0  0  0  0  0  0  0
   -5.2898   -3.6220    2.0739 H   0  0  0  0  0  0  0  0  0  0  0  0
   -4.7047   -0.8175    0.2540 H   0  0  0  0  0  0  0  0  0  0  0  0
   -2.1048   -2.5891   -2.6911 H   0  0  0  0  0  0  0  0  0  0  0  0
   -4.6305   -5.0823   -0.2691 H   0  0  0  0  0  0  0  0  0  0  0  0
   -3.2462   -5.1134   -3.3604 H   0  0  0  0  0  0  0  0  0  0  0  0
   -3.2566   -6.1215   -1.8826 H   0  0  0  0  0  0  0  0  0  0  0  0
    0.0340   -4.8778   -0.2978 H   0  0  0  0  0  0  0  0  0  0  0  0
   -1.6388   -5.4261   -0.0224 H   0  0  0  0  0  0  0  0  0  0  0  0
   -0.0363   -7.0683    0.7585 H   0  0  0  0  0  0  0  0  0  0  0  0
   -1.7369   -8.5916    1.3597 H   0  0  0  0  0  0  0  0  0  0  0  0
   -2.6628   -9.4887    0.1044 H   0  0  0  0  0  0  0  0  0  0  0  0
    1.0197   -7.4715   -2.0641 H   0  0  0  0  0  0  0  0  0  0  0  0
    2.2589   -5.6767    0.6493 H   0  0  0  0  0  0  0  0  0  0  0  0
    3.0982   -6.5126    2.8501 H   0  0  0  0  0  0  0  0  0  0  0  0
    3.1880   -8.1910    2.1909 H   0  0  0  0  0  0  0  0  0  0  0  0
    1.5904   -7.3620    2.3584 H   0  0  0  0  0  0  0  0  0  0  0  0
    4.8557   -7.2325    0.3035 H   0  0  0  0  0  0  0  0  0  0  0  0
    6.6514   -3.9623    0.9247 H   0  0  0  0  0  0  0  0  0  0  0  0
    7.8183   -5.5170    2.4522 H   0  0  0  0  0  0  0  0  0  0  0  0
    6.4397   -6.6821    2.3431 H   0  0  0  0  0  0  0  0  0  0  0  0
    6.1953   -5.0536    3.0836 H   0  0  0  0  0  0  0  0  0  0  0  0
    7.0352   -6.7972   -0.1314 H   0  0  0  0  0  0  0  0  0  0  0  0
    8.8322   -3.6201   -2.2541 H   0  0  0  0  0  0  0  0  0  0  0  0
    5.9998   -3.1279   -1.1462 H   0  0  0  0  0  0  0  0  0  0  0  0
    6.8538   -2.3341   -2.5250 H   0  0  0  0  0  0  0  0  0  0  0  0
    6.3423   -4.0495   -2.6560 H   0  0  0  0  0  0  0  0  0  0  0  0
    9.3568   -3.2941    0.2876 H   0  0  0  0  0  0  0  0  0  0  0  0
    9.7216   -0.1017    0.7415 H   0  0  0  0  0  0  0  0  0  0  0  0
   10.9939   -1.8545   -1.4361 H   0  0  0  0  0  0  0  0  0  0  0  0
   11.8361   -0.5362   -0.5361 H   0  0  0  0  0  0  0  0  0  0  0  0
   11.2254   -1.9539    0.3647 H   0  0  0  0  0  0  0  0  0  0  0  0
    9.6433    0.1866   -2.3000 H   0  0  0  0  0  0  0  0  0  0  0  0
    8.4357    1.6570    0.9813 H   0  0  0  0  0  0  0  0  0  0  0  0
   10.9201    1.9781    0.9706 H   0  0  0  0  0  0  0  0  0  0  0  0
   10.0941    3.2885    1.8912 H   0  0  0  0  0  0  0  0  0  0  0  0
   10.7148    3.6051    0.2240 H   0  0  0  0  0  0  0  0  0  0  0  0
    8.3251    4.5142    0.4781 H   0  0  0  0  0  0  0  0  0  0  0  0
    4.5845    4.2039   -0.0532 H   0  0  0  0  0  0  0  0  0  0  0  0
    4.8136    5.6735    1.9532 H   0  0  0  0  0  0  0  0  0  0  0  0
    6.5849    5.3670    2.0146 H   0  0  0  0  0  0  0  0  0  0  0  0
    5.4059    4.0399    2.3509 H   0  0  0  0  0  0  0  0  0  0  0  0
    6.9113    5.6541   -1.1003 H   0  0  0  0  0  0  0  0  0  0  0  0
    3.4729    6.1376    0.2208 H   0  0  0  0  0  0  0  0  0  0  0  0
    4.1118    9.1649    0.2596 H   0  0  0  0  0  0  0  0  0  0  0  0
    3.0274    8.2669    1.3855 H   0  0  0  0  0  0  0  0  0  0  0  0
    4.7937    7.9956    1.4489 H   0  0  0  0  0  0  0  0  0  0  0  0
    3.1343    7.6928   -2.2411 H   0  0  0  0  0  0  0  0  0  0  0  0
    1.4382    6.5105    0.8785 H   0  0  0  0  0  0  0  0  0  0  0  0
   -0.7607    8.5946    0.3320 H   0  0  0  0  0  0  0  0  0  0  0  0
    0.8211    8.9548    1.1008 H   0  0  0  0  0  0  0  0  0  0  0  0
   -0.3160    7.8342    1.9134 H   0  0  0  0  0  0  0  0  0  0  0  0
    0.0114    5.2184   -0.8548 H   0  0  0  0  0  0  0  0  0  0  0  0
   -2.6273    7.0645    1.3715 H   0  0  0  0  0  0  0  0  0  0  0  0
   -4.1522    6.8992   -0.7342 H   0  0  0  0  0  0  0  0  0  0  0  0
   -2.5355    7.6555   -0.8869 H   0  0  0  0  0  0  0  0  0  0  0  0
   -2.7686    5.9946   -1.4836 H   0  0  0  0  0  0  0  0  0  0  0  0
   -4.1243    5.5662    2.1782 H   0  0  0  0  0  0  0  0  0  0  0  0
   -2.9489    3.7530   -0.9977 H   0  0  0  0  0  0  0  0  0  0  0  0
   -4.3109    1.8826   -1.9735 H   0  0  0  0  0  0  0  0  0  0  0  0
   -5.0977    1.6356   -0.3954 H   0  0  0  0  0  0  0  0  0  0  0  0
   -3.1319    0.1419   -2.5521 H   0  0  0  0  0  0  0  0  0  0  0  0
   -1.6185   -0.3709   -1.8047 H   0  0  0  0  0  0  0  0  0  0  0  0
   -4.5347    4.7575   -2.2965 H   0  0  0  0  0  0  0  0  0  0  0  0
   -6.4946    3.1320    0.4566 H   0  0  0  0  0  0  0  0  0  0  0  0
   -8.1038    5.7471    0.3976 H   0  0  0  0  0  0  0  0  0  0  0  0
   -6.5266    5.4994    1.2347 H   0  0  0  0  0  0  0  0  0  0  0  0
   -7.9785    4.5850    1.7686 H   0  0  0  0  0  0  0  0  0  0  0  0
   -9.1056    3.7831   -0.9263 H   0  0  0  0  0  0  0  0  0  0  0  0
   -7.8046    0.0670    0.2564 H   0  0  0  0  0  0  0  0  0  0  0  0
   -9.0611    0.6126    2.3826 H   0  0  0  0  0  0  0  0  0  0  0  0
   -7.7929    1.8158    1.9668 H   0  0  0  0  0  0  0  0  0  0  0  0
   -9.5366    2.1956    1.6604 H   0  0  0  0  0  0  0  0  0  0  0  0
  -10.7083    0.6861   -0.4056 H   0  0  0  0  0  0  0  0  0  0  0  0
  1  2  1  0
  2  3  2  0
  2  4  1  0
  4  5  1  0
  5  6  1  0
  6  7  1  0
  7  8  1  0
  8  9  1  0
  9 10  2  0
 10 11  1  0
 11 12  2  0
 12 13  1  0
 13 14  2  0
 13 15  1  0
 15 16  1  0
 16 17  1  0
 17 18  1  0
 18 19  1  0
 19 20  1  0
 19 21  2  0
 18 22  1  0
 22 23  1  0
 23 24  2  0
 23 25  1  0
 25 26  1  0
 25 27  1  0
 27 28  1  0
 28 29  2  0
 28 30  1  0
 30 31  1  0
 30 32  1  0
 32 33  1  0
 33 34  2  0
 33 35  1  0
 35 36  1  0
 35 37  1  0
 37 38  1  0
 38 39  2  0
 38 40  1  0
 40 41  1  0
 40 42  1  0
 42 43  1  0
 43 44  2  0
 43 45  1  0
 45 46  1  0
 45 47  1  0
 47 48  1  0
 48 49  2  0
 48 50  1  0
 50 51  1  0
 50 52  1  0
 52 53  1  0
 53 54  2  0
 53 55  1  0
 55 56  1  0
 55 57  1  0
 57 58  1  0
 58 59  2  0
 58 60  1  0
 60 61  1  0
 60 62  1  0
 62 63  1  0
 63 64  2  0
 63 65  1  0
 65 66  1  0
 65 67  1  0
 67 68  1  0
 68 69  2  0
 68 70  1  0
 70 71  1  0
 71 72  1  0
 72 73  1  0
 70 74  1  0
 74 75  1  0
 75 76  2  0
 75 77  1  0
 77 78  1  0
 77 79  1  0
 79 80  1  0
 80 81  2  0
 80 82  1  0
 82 83  1  0
 82 84  1  0
 84 85  1  0
 85 86  2  0
 85  5  1  0
 14  9  1  0
 73 11  1  0
  1 87  1  0
  1 88  1  0
  1 89  1  0
  4 90  1  0
  5 91  1  1
  6 92  1  0
  6 93  1  0
  8 94  1  0
  8 95  1  0
 10 96  1  0
 12 97  1  0
 14 98  1  0
 15 99  1  0
 15100  1  0
 17101  1  0
 17102  1  0
 18103  1  1
 20104  1  0
 20105  1  0
 22106  1  0
 25107  1  1
 26108  1  0
 26109  1  0
 26110  1  0
 27111  1  0
 30112  1  1
 31113  1  0
 31114  1  0
 31115  1  0
 32116  1  0
 35117  1  6
 36118  1  0
 36119  1  0
 36120  1  0
 37121  1  0
 40122  1  1
 41123  1  0
 41124  1  0
 41125  1  0
 42126  1  0
 45127  1  1
 46128  1  0
 46129  1  0
 46130  1  0
 47131  1  0
 50132  1  6
 51133  1  0
 51134  1  0
 51135  1  0
 52136  1  0
 55137  1  1
 56138  1  0
 56139  1  0
 56140  1  0
 57141  1  0
 60142  1  1
 61143  1  0
 61144  1  0
 61145  1  0
 62146  1  0
 65147  1  1
 66148  1  0
 66149  1  0
 66150  1  0
 67151  1  0
 70152  1  6
 71153  1  0
 71154  1  0
 73155  1  0
 73156  1  0
 74157  1  0
 77158  1  1
 78159  1  0
 78160  1  0
 78161  1  0
 79162  1  0
 82163  1  1
 83164  1  0
 83165  1  0
 83166  1  0
 84167  1  0
M  END
