
     RDKit          3D

177179  0  0  0  0  0  0  0  0999 V2000
   12.7808   -3.4875   -0.3310 C   0  0  0  0  0  0  0  0  0  0  0  0
   11.8067   -3.2113    0.7727 C   0  0  0  0  0  0  0  0  0  0  0  0
   12.0728   -3.6169    1.9365 O   0  0  0  0  0  0  0  0  0  0  0  0
   10.5689   -2.5173    0.5399 N   0  0  0  0  0  0  0  0  0  0  0  0
   10.2537   -1.7918   -0.6961 C   0  0  1  0  0  0  0  0  0  0  0  0
    8.7445   -1.8876   -0.9831 C   0  0  0  0  0  0  0  0  0  0  0  0
    8.2166   -3.6368   -1.1461 S   0  0  0  0  0  0  0  0  0  0  0  0
    7.1285   -3.7008    0.3227 C   0  0  0  0  0  0  0  0  0  0  0  0
    5.7096   -3.3568   -0.0553 C   0  0  0  0  0  0  0  0  0  0  0  0
    5.2527   -2.0316    0.0172 C   0  0  0  0  0  0  0  0  0  0  0  0
    3.9221   -1.7071   -0.2939 C   0  0  0  0  0  0  0  0  0  0  0  0
    3.0284   -2.7407   -0.6310 C   0  0  0  0  0  0  0  0  0  0  0  0
    3.4664   -4.0730   -0.6889 C   0  0  0  0  0  0  0  0  0  0  0  0
    4.8086   -4.3738   -0.4058 C   0  0  0  0  0  0  0  0  0  0  0  0
    2.4629   -5.1800   -0.8579 C   0  0  0  0  0  0  0  0  0  0  0  0
    1.8434   -5.6321    0.7950 S   0  0  0  0  0  0  0  0  0  0  0  0
    0.3938   -6.6134    0.2503 C   0  0  0  0  0  0  0  0  0  0  0  0
    0.7658   -7.9590   -0.4046 C   0  0  1  0  0  0  0  0  0  0  0  0
    1.8118   -8.7544    0.3472 C   0  0  0  0  0  0  0  0  0  0  0  0
    1.8494   -8.7921    1.7745 N   0  0  0  0  0  0  0  0  0  0  0  0
    2.6853   -9.3813   -0.3113 O   0  0  0  0  0  0  0  0  0  0  0  0
   -0.4409   -8.7669   -0.6321 N   0  0  0  0  0  0  0  0  0  0  0  0
   -1.3328   -9.1624    0.4254 C   0  0  0  0  0  0  0  0  0  0  0  0
   -0.8730   -9.5789    1.5175 O   0  0  0  0  0  0  0  0  0  0  0  0
   -2.8239   -9.0010    0.2487 C   0  0  1  0  0  0  0  0  0  0  0  0
   -3.5138  -10.3604    0.2180 C   0  0  0  0  0  0  0  0  0  0  0  0
   -3.3664   -8.1899    1.3465 N   0  0  0  0  0  0  0  0  0  0  0  0
   -4.3911   -7.1903    1.2147 C   0  0  0  0  0  0  0  0  0  0  0  0
   -4.5802   -6.3943    2.1721 O   0  0  0  0  0  0  0  0  0  0  0  0
   -5.3063   -7.1022    0.0141 C   0  0  1  0  0  0  0  0  0  0  0  0
   -6.6939   -7.6571    0.3589 C   0  0  0  0  0  0  0  0  0  0  0  0
   -5.3566   -5.7165   -0.4754 N   0  0  0  0  0  0  0  0  0  0  0  0
   -6.4053   -4.7906   -0.1456 C   0  0  0  0  0  0  0  0  0  0  0  0
   -6.7216   -4.6203    1.0620 O   0  0  0  0  0  0  0  0  0  0  0  0
   -7.1251   -3.9991   -1.2096 C   0  0  1  0  0  0  0  0  0  0  0  0
   -6.6770   -4.3717   -2.6276 C   0  0  0  0  0  0  0  0  0  0  0  0
   -8.5642   -4.2427   -1.0856 N   0  0  0  0  0  0  0  0  0  0  0  0
   -9.5235   -3.1948   -1.2451 C   0  0  0  0  0  0  0  0  0  0  0  0
  -10.1613   -3.1074   -2.3302 O   0  0  0  0  0  0  0  0  0  0  0  0
   -9.9068   -2.3086   -0.0894 C   0  0  1  0  0  0  0  0  0  0  0  0
  -10.8446   -3.0672    0.8525 C   0  0  0  0  0  0  0  0  0  0  0  0
   -8.7203   -1.8673    0.6514 N   0  0  0  0  0  0  0  0  0  0  0  0
   -8.2903   -0.5056    0.8300 C   0  0  0  0  0  0  0  0  0  0  0  0
   -7.3226   -0.2879    1.6103 O   0  0  0  0  0  0  0  0  0  0  0  0
   -9.0043    0.6700    0.1925 C   0  0  1  0  0  0  0  0  0  0  0  0
  -10.2501    1.0099    1.0208 C   0  0  0  0  0  0  0  0  0  0  0  0
   -8.1317    1.8471    0.1032 N   0  0  0  0  0  0  0  0  0  0  0  0
   -8.5853    3.0814   -0.4707 C   0  0  0  0  0  0  0  0  0  0  0  0
   -9.3511    3.0586   -1.4733 O   0  0  0  0  0  0  0  0  0  0  0  0
   -8.2275    4.4129    0.1448 C   0  0  1  0  0  0  0  0  0  0  0  0
   -9.4844    5.0524    0.7467 C   0  0  0  0  0  0  0  0  0  0  0  0
   -7.2056    4.2616    1.1832 N   0  0  0  0  0  0  0  0  0  0  0  0
   -5.8396    4.6875    1.0404 C   0  0  0  0  0  0  0  0  0  0  0  0
   -4.9237    3.9387    1.4914 O   0  0  0  0  0  0  0  0  0  0  0  0
   -5.4741    5.9755    0.3390 C   0  0  1  0  0  0  0  0  0  0  0  0
   -6.2726    7.1598    0.8956 C   0  0  0  0  0  0  0  0  0  0  0  0
   -4.0430    6.2646    0.4947 N   0  0  0  0  0  0  0  0  0  0  0  0
   -3.1579    6.2315   -0.6286 C   0  0  0  0  0  0  0  0  0  0  0  0
   -3.1162    5.2000   -1.3581 O   0  0  0  0  0  0  0  0  0  0  0  0
   -2.2816    7.4125   -0.9570 C   0  0  1  0  0  0  0  0  0  0  0  0
   -3.1289    8.6597   -1.1810 C   0  0  0  0  0  0  0  0  0  0  0  0
   -1.3051    7.6503    0.1156 N   0  0  0  0  0  0  0  0  0  0  0  0
   -0.0425    8.3092   -0.0831 C   0  0  0  0  0  0  0  0  0  0  0  0
    0.5208    8.8518    0.9077 O   0  0  0  0  0  0  0  0  0  0  0  0
    0.6311    8.3447   -1.4421 C   0  0  1  0  0  0  0  0  0  0  0  0
    1.9373    9.1498   -1.4660 C   0  0  0  0  0  0  0  0  0  0  0  0
    0.8535    6.9981   -1.9805 N   0  0  0  0  0  0  0  0  0  0  0  0
    1.2268    5.8285   -1.2286 C   0  0  0  0  0  0  0  0  0  0  0  0
    0.8396    4.7057   -1.6424 O   0  0  0  0  0  0  0  0  0  0  0  0
    2.1148    5.8936   -0.0021 C   0  0  1  0  0  0  0  0  0  0  0  0
    1.5921    4.9846    1.1148 C   0  0  0  0  0  0  0  0  0  0  0  0
    3.5084    5.5663   -0.3283 N   0  0  0  0  0  0  0  0  0  0  0  0
    3.9221    4.2665   -0.7771 C   0  0  0  0  0  0  0  0  0  0  0  0
    3.4172    3.7647   -1.8174 O   0  0  0  0  0  0  0  0  0  0  0  0
    4.9893    3.5217   -0.0192 C   0  0  1  0  0  0  0  0  0  0  0  0
    4.5072    2.1236    0.4178 C   0  0  0  0  0  0  0  0  0  0  0  0
    4.4094    0.9280   -0.9711 S   0  0  0  0  0  0  0  0  0  0  0  0
    3.4039   -0.3106   -0.0686 C   0  0  0  0  0  0  0  0  0  0  0  0
    6.2405    3.4604   -0.7831 N   0  0  0  0  0  0  0  0  0  0  0  0
    6.9257    4.6625   -1.1661 C   0  0  0  0  0  0  0  0  0  0  0  0
    6.5430    5.2951   -2.1905 O   0  0  0  0  0  0  0  0  0  0  0  0
    8.0783    5.1914   -0.3510 C   0  0  1  0  0  0  0  0  0  0  0  0
    7.5728    6.2431    0.6441 C   0  0  0  0  0  0  0  0  0  0  0  0
    8.7467    4.0973    0.3598 N   0  0  0  0  0  0  0  0  0  0  0  0
    9.6303    3.1809   -0.3158 C   0  0  0  0  0  0  0  0  0  0  0  0
    9.9751    3.4169   -1.5051 O   0  0  0  0  0  0  0  0  0  0  0  0
   10.1694    1.9290    0.3447 C   0  0  1  0  0  0  0  0  0  0  0  0
    9.6391    1.6853    1.7622 C   0  0  0  0  0  0  0  0  0  0  0  0
    9.8604    0.7627   -0.4838 N   0  0  0  0  0  0  0  0  0  0  0  0
   10.7540   -0.3625   -0.5624 C   0  0  0  0  0  0  0  0  0  0  0  0
   11.9955   -0.1697   -0.4663 O   0  0  0  0  0  0  0  0  0  0  0  0
   13.6744   -4.0140    0.0692 H   0  0  0  0  0  0  0  0  0  0  0  0
   12.3043   -4.1342   -1.0981 H   0  0  0  0  0  0  0  0  0  0  0  0
   13.1103   -2.5405   -0.7976 H   0  0  0  0  0  0  0  0  0  0  0  0
    9.9421   -2.3709    1.3650 H   0  0  0  0  0  0  0  0  0  0  0  0
   10.7780   -2.2566   -1.5606 H   0  0  0  0  0  0  0  0  0  0  0  0
    8.5287   -1.3891   -1.9538 H   0  0  0  0  0  0  0  0  0  0  0  0
    8.1754   -1.3630   -0.1865 H   0  0  0  0  0  0  0  0  0  0  0  0
    7.4907   -3.0464    1.1468 H   0  0  0  0  0  0  0  0  0  0  0  0
    7.1699   -4.7330    0.7306 H   0  0  0  0  0  0  0  0  0  0  0  0
    5.9235   -1.2427    0.3357 H   0  0  0  0  0  0  0  0  0  0  0  0
    1.9810   -2.5179   -0.7929 H   0  0  0  0  0  0  0  0  0  0  0  0
    5.1405   -5.4073   -0.4127 H   0  0  0  0  0  0  0  0  0  0  0  0
    2.9414   -6.0607   -1.3312 H   0  0  0  0  0  0  0  0  0  0  0  0
    1.6294   -4.8409   -1.5072 H   0  0  0  0  0  0  0  0  0  0  0  0
   -0.2367   -6.7898    1.1509 H   0  0  0  0  0  0  0  0  0  0  0  0
   -0.2235   -6.0078   -0.4546 H   0  0  0  0  0  0  0  0  0  0  0  0
    1.1915   -7.7189   -1.4046 H   0  0  0  0  0  0  0  0  0  0  0  0
    2.6307   -9.2978    2.2559 H   0  0  0  0  0  0  0  0  0  0  0  0
    1.1864   -8.2380    2.3597 H   0  0  0  0  0  0  0  0  0  0  0  0
   -0.7944   -8.8357   -1.6138 H   0  0  0  0  0  0  0  0  0  0  0  0
   -2.9851   -8.4940   -0.7234 H   0  0  0  0  0  0  0  0  0  0  0  0
   -4.6050  -10.2268    0.0479 H   0  0  0  0  0  0  0  0  0  0  0  0
   -3.3713  -10.8956    1.1853 H   0  0  0  0  0  0  0  0  0  0  0  0
   -3.1084  -10.9884   -0.6048 H   0  0  0  0  0  0  0  0  0  0  0  0
   -3.0138   -8.3806    2.3157 H   0  0  0  0  0  0  0  0  0  0  0  0
   -4.9429   -7.7238   -0.8280 H   0  0  0  0  0  0  0  0  0  0  0  0
   -7.1448   -7.1340    1.2311 H   0  0  0  0  0  0  0  0  0  0  0  0
   -7.3713   -7.5492   -0.5181 H   0  0  0  0  0  0  0  0  0  0  0  0
   -6.6139   -8.7400    0.6054 H   0  0  0  0  0  0  0  0  0  0  0  0
   -4.5527   -5.3699   -1.0510 H   0  0  0  0  0  0  0  0  0  0  0  0
   -6.9084   -2.9174   -1.0568 H   0  0  0  0  0  0  0  0  0  0  0  0
   -5.6097   -4.0994   -2.7805 H   0  0  0  0  0  0  0  0  0  0  0  0
   -6.8110   -5.4632   -2.8014 H   0  0  0  0  0  0  0  0  0  0  0  0
   -7.2836   -3.8159   -3.3765 H   0  0  0  0  0  0  0  0  0  0  0  0
   -8.9045   -5.2294   -1.1834 H   0  0  0  0  0  0  0  0  0  0  0  0
  -10.4731   -1.4470   -0.4932 H   0  0  0  0  0  0  0  0  0  0  0  0
  -11.7702   -3.3653    0.3174 H   0  0  0  0  0  0  0  0  0  0  0  0
  -10.3410   -3.9762    1.2460 H   0  0  0  0  0  0  0  0  0  0  0  0
  -11.1210   -2.4228    1.7098 H   0  0  0  0  0  0  0  0  0  0  0  0
   -8.1895   -2.5918    1.1863 H   0  0  0  0  0  0  0  0  0  0  0  0
   -9.3138    0.3890   -0.8422 H   0  0  0  0  0  0  0  0  0  0  0  0
   -9.9528    1.3944    2.0185 H   0  0  0  0  0  0  0  0  0  0  0  0
  -10.8558    1.7835    0.5044 H   0  0  0  0  0  0  0  0  0  0  0  0
  -10.8932    0.1188    1.1674 H   0  0  0  0  0  0  0  0  0  0  0  0
   -7.1289    1.7962    0.4096 H   0  0  0  0  0  0  0  0  0  0  0  0
   -7.8567    5.0719   -0.6697 H   0  0  0  0  0  0  0  0  0  0  0  0
   -9.2273    5.9840    1.2895 H   0  0  0  0  0  0  0  0  0  0  0  0
   -9.9734    4.3523    1.4608 H   0  0  0  0  0  0  0  0  0  0  0  0
  -10.2039    5.3022   -0.0611 H   0  0  0  0  0  0  0  0  0  0  0  0
   -7.4212    3.6322    1.9957 H   0  0  0  0  0  0  0  0  0  0  0  0
   -5.7067    5.8686   -0.7445 H   0  0  0  0  0  0  0  0  0  0  0  0
   -7.3305    7.1034    0.5818 H   0  0  0  0  0  0  0  0  0  0  0  0
   -6.2137    7.1791    2.0056 H   0  0  0  0  0  0  0  0  0  0  0  0
   -5.8605    8.1102    0.4969 H   0  0  0  0  0  0  0  0  0  0  0  0
   -3.7193    6.7045    1.3855 H   0  0  0  0  0  0  0  0  0  0  0  0
   -1.7528    7.1852   -1.9077 H   0  0  0  0  0  0  0  0  0  0  0  0
   -3.8855    8.4708   -1.9717 H   0  0  0  0  0  0  0  0  0  0  0  0
   -2.4855    9.5103   -1.5030 H   0  0  0  0  0  0  0  0  0  0  0  0
   -3.6491    8.9495   -0.2411 H   0  0  0  0  0  0  0  0  0  0  0  0
   -1.6203    7.5486    1.1038 H   0  0  0  0  0  0  0  0  0  0  0  0
   -0.0592    8.8825   -2.1257 H   0  0  0  0  0  0  0  0  0  0  0  0
    1.7556   10.1819   -1.0941 H   0  0  0  0  0  0  0  0  0  0  0  0
    2.3082    9.2255   -2.5103 H   0  0  0  0  0  0  0  0  0  0  0  0
    2.7287    8.6796   -0.8452 H   0  0  0  0  0  0  0  0  0  0  0  0
    0.5065    6.8295   -2.9560 H   0  0  0  0  0  0  0  0  0  0  0  0
    2.1114    6.9151    0.4095 H   0  0  0  0  0  0  0  0  0  0  0  0
    1.5693    3.9237    0.7944 H   0  0  0  0  0  0  0  0  0  0  0  0
    2.2427    5.0744    2.0092 H   0  0  0  0  0  0  0  0  0  0  0  0
    0.5657    5.2976    1.4038 H   0  0  0  0  0  0  0  0  0  0  0  0
    4.2416    6.1583    0.1209 H   0  0  0  0  0  0  0  0  0  0  0  0
    5.1905    4.0805    0.9217 H   0  0  0  0  0  0  0  0  0  0  0  0
    3.5087    2.2246    0.8951 H   0  0  0  0  0  0  0  0  0  0  0  0
    5.2073    1.7124    1.1760 H   0  0  0  0  0  0  0  0  0  0  0  0
    2.3582   -0.2155   -0.4347 H   0  0  0  0  0  0  0  0  0  0  0  0
    3.3838   -0.1213    1.0283 H   0  0  0  0  0  0  0  0  0  0  0  0
    6.8206    2.6007   -0.7008 H   0  0  0  0  0  0  0  0  0  0  0  0
    8.8037    5.6881   -1.0274 H   0  0  0  0  0  0  0  0  0  0  0  0
    7.1537    7.1119    0.0960 H   0  0  0  0  0  0  0  0  0  0  0  0
    8.4214    6.6032    1.2660 H   0  0  0  0  0  0  0  0  0  0  0  0
    6.7907    5.8274    1.3159 H   0  0  0  0  0  0  0  0  0  0  0  0
    8.4971    3.9479    1.3617 H   0  0  0  0  0  0  0  0  0  0  0  0
   11.2746    2.0551    0.4157 H   0  0  0  0  0  0  0  0  0  0  0  0
    8.5273    1.6103    1.7618 H   0  0  0  0  0  0  0  0  0  0  0  0
   10.0460    0.7276    2.1587 H   0  0  0  0  0  0  0  0  0  0  0  0
    9.9672    2.4967    2.4485 H   0  0  0  0  0  0  0  0  0  0  0  0
    8.8973    0.6999   -0.8896 H   0  0  0  0  0  0  0  0  0  0  0  0
  1  2  1  0
  2  3  2  0
  2  4  1  0
  4  5  1  0
  5  6  1  0
  6  7  1  0
  7  8  1  0
  8  9  1  0
  9 10  2  0
 10 11  1  0
 11 12  2  0
 12 13  1  0
 13 14  2  0
 13 15  1  0
 15 16  1  0
 16 17  1  0
 17 18  1  0
 18 19  1  0
 19 20  1  0
 19 21  2  0
 18 22  1  0
 22 23  1  0
 23 24  2  0
 23 25  1  0
 25 26  1  0
 25 27  1  0
 27 28  1  0
 28 29  2  0
 28 30  1  0
 30 31  1  0
 30 32  1  0
 32 33  1  0
 33 34  2  0
 33 35  1  0
 35 36  1  0
 35 37  1  0
 37 38  1  0
 38 39  2  0
 38 40  1  0
 40 41  1  0
 40 42  1  0
 42 43  1  0
 43 44  2  0
 43 45  1  0
 45 46  1  0
 45 47  1  0
 47 48  1  0
 48 49  2  0
 48 50  1  0
 50 51  1  0
 50 52  1  0
 52 53  1  0
 53 54  2  0
 53 55  1  0
 55 56  1  0
 55 57  1  0
 57 58  1  0
 58 59  2  0
 58 60  1  0
 60 61  1  0
 60 62  1  0
 62 63  1  0
 63 64  2  0
 63 65  1  0
 65 66  1  0
 65 67  1  0
 67 68  1  0
 68 69  2  0
 68 70  1  0
 70 71  1  0
 70 72  1  0
 72 73  1  0
 73 74  2  0
 73 75  1  0
 75 76  1  0
 76 77  1  0
 77 78  1  0
 75 79  1  0
 79 80  1  0
 80 81  2  0
 80 82  1  0
 82 83  1  0
 82 84  1  0
 84 85  1  0
 85 86  2  0
 85 87  1  0
 87 88  1  0
 87 89  1  0
 89 90  1  0
 90 91  2  0
 90  5  1  0
 14  9  1  0
 78 11  1  0
  1 92  1  0
  1 93  1  0
  1 94  1  0
  4 95  1  0
  5 96  1  6
  6 97  1  0
  6 98  1  0
  8 99  1  0
  8100  1  0
 10101  1  0
 12102  1  0
 14103  1  0
 15104  1  0
 15105  1  0
 17106  1  0
 17107  1  0
 18108  1  6
 20109  1  0
 20110  1  0
 22111  1  0
 25112  1  6
 26113  1  0
 26114  1  0
 26115  1  0
 27116  1  0
 30117  1  6
 31118  1  0
 31119  1  0
 31120  1  0
 32121  1  0
 35122  1  1
 36123  1  0
 36124  1  0
 36125  1  0
 37126  1  0
 40127  1  6
 41128  1  0
 41129  1  0
 41130  1  0
 42131  1  0
 45132  1  6
 46133  1  0
 46134  1  0
 46135  1  0
 47136  1  0
 50137  1  6
 51138  1  0
 51139  1  0
 51140  1  0
 52141  1  0
 55142  1  6
 56143  1  0
 56144  1  0
 56145  1  0
 57146  1  0
 60147  1  6
 61148  1  0
 61149  1  0
 61150  1  0
 62151  1  0
 65152  1  6
 66153  1  0
 66154  1  0
 66155  1  0
 67156  1  0
 70157  1  1
 71158  1  0
 71159  1  0
 71160  1  0
 72161  1  0
 75162  1  1
 76163  1  0
 76164  1  0
 78165  1  0
 78166  1  0
 79167  1  0
 82168  1  6
 83169  1  0
 83170  1  0
 83171  1  0
 84172  1  0
 87173  1  1
 88174  1  0
 88175  1  0
 88176  1  0
 89177  1  0
M  END
