
     RDKit          3D

107109  0  0  0  0  0  0  0  0999 V2000
    7.7107    2.8106    0.1432 C   0  0  0  0  0  0  0  0  0  0  0  0
    7.4102    1.7819    1.1897 C   0  0  0  0  0  0  0  0  0  0  0  0
    8.3614    1.2877    1.8547 O   0  0  0  0  0  0  0  0  0  0  0  0
    6.0628    1.3564    1.4582 N   0  0  0  0  0  0  0  0  0  0  0  0
    5.0784    1.1361    0.3939 C   0  0  2  0  0  0  0  0  0  0  0  0
    3.7073    1.6869    0.8026 C   0  0  0  0  0  0  0  0  0  0  0  0
    3.7138    3.5198    0.8649 S   0  0  0  0  0  0  0  0  0  0  0  0
    3.4419    3.8323   -0.9198 C   0  0  0  0  0  0  0  0  0  0  0  0
    2.0624    3.4166   -1.3497 C   0  0  0  0  0  0  0  0  0  0  0  0
    0.9339    4.0870   -0.8562 C   0  0  0  0  0  0  0  0  0  0  0  0
   -0.3536    3.6711   -1.2280 C   0  0  0  0  0  0  0  0  0  0  0  0
   -0.5094    2.5638   -2.0773 C   0  0  0  0  0  0  0  0  0  0  0  0
    0.6120    1.8601   -2.5386 C   0  0  0  0  0  0  0  0  0  0  0  0
    1.8953    2.3157   -2.2021 C   0  0  0  0  0  0  0  0  0  0  0  0
    0.4549    0.6153   -3.3791 C   0  0  0  0  0  0  0  0  0  0  0  0
   -0.7714   -0.5587   -2.6879 S   0  0  0  0  0  0  0  0  0  0  0  0
   -0.0121   -0.8132   -1.0298 C   0  0  0  0  0  0  0  0  0  0  0  0
    0.6697   -2.1870   -0.8428 C   0  0  2  0  0  0  0  0  0  0  0  0
    2.0664   -2.1296   -1.2886 N   0  0  0  0  0  0  0  0  0  0  0  0
    3.0236   -3.1740   -1.0308 C   0  0  0  0  0  0  0  0  0  0  0  0
    4.0816   -3.2001   -1.7107 O   0  0  0  0  0  0  0  0  0  0  0  0
    2.7958   -4.2210    0.0407 C   0  0  1  0  0  0  0  0  0  0  0  0
    3.6458   -5.4836   -0.1752 C   0  0  0  0  0  0  0  0  0  0  0  0
    3.0035   -3.6583    1.3856 N   0  0  0  0  0  0  0  0  0  0  0  0
    4.2931   -3.4966    2.0012 C   0  0  0  0  0  0  0  0  0  0  0  0
    4.6467   -4.3083    2.9009 O   0  0  0  0  0  0  0  0  0  0  0  0
    5.1983   -2.3474    1.6421 C   0  0  1  0  0  0  0  0  0  0  0  0
    6.3953   -2.8284    0.8073 C   0  0  0  0  0  0  0  0  0  0  0  0
    4.4381   -1.2641    1.0056 N   0  0  0  0  0  0  0  0  0  0  0  0
    5.0116   -0.3313    0.0750 C   0  0  0  0  0  0  0  0  0  0  0  0
    5.4659   -0.7415   -1.0257 O   0  0  0  0  0  0  0  0  0  0  0  0
   -0.0459   -3.3175   -1.5596 C   0  0  0  0  0  0  0  0  0  0  0  0
    0.3798   -3.6518   -2.6999 O   0  0  0  0  0  0  0  0  0  0  0  0
   -1.1580   -4.0488   -1.0084 N   0  0  0  0  0  0  0  0  0  0  0  0
   -2.0067   -3.6139    0.1121 C   0  0  2  0  0  0  0  0  0  0  0  0
   -1.4247   -4.1060    1.4524 C   0  0  0  0  0  0  0  0  0  0  0  0
   -3.3888   -4.1822   -0.0967 C   0  0  0  0  0  0  0  0  0  0  0  0
   -3.5523   -5.4268    0.0048 O   0  0  0  0  0  0  0  0  0  0  0  0
   -4.4997   -3.3732   -0.5185 N   0  0  0  0  0  0  0  0  0  0  0  0
   -4.7840   -2.0115   -0.0349 C   0  0  2  0  0  0  0  0  0  0  0  0
   -4.9732   -2.0278    1.4888 C   0  0  0  0  0  0  0  0  0  0  0  0
   -6.0435   -1.4838   -0.6902 C   0  0  0  0  0  0  0  0  0  0  0  0
   -7.0677   -2.2168   -0.7553 O   0  0  0  0  0  0  0  0  0  0  0  0
   -6.1043   -0.1619   -1.2423 N   0  0  0  0  0  0  0  0  0  0  0  0
   -5.9548    1.0202   -0.3799 C   0  0  2  0  0  0  0  0  0  0  0  0
   -7.2505    1.2163    0.4092 C   0  0  0  0  0  0  0  0  0  0  0  0
   -5.6173    2.2618   -1.1867 C   0  0  0  0  0  0  0  0  0  0  0  0
   -5.7982    2.2464   -2.4347 O   0  0  0  0  0  0  0  0  0  0  0  0
   -5.0719    3.4600   -0.5988 N   0  0  0  0  0  0  0  0  0  0  0  0
   -4.9514    3.7374    0.8436 C   0  0  2  0  0  0  0  0  0  0  0  0
   -6.0478    4.6767    1.2727 C   0  0  0  0  0  0  0  0  0  0  0  0
   -6.2001    5.9555    0.6588 N   0  0  0  0  0  0  0  0  0  0  0  0
   -6.8344    4.3355    2.1946 O   0  0  0  0  0  0  0  0  0  0  0  0
   -3.5875    4.3583    1.1807 C   0  0  0  0  0  0  0  0  0  0  0  0
   -2.2189    3.2507    0.6949 S   0  0  0  0  0  0  0  0  0  0  0  0
   -1.5591    4.3226   -0.6289 C   0  0  0  0  0  0  0  0  0  0  0  0
    8.7763    3.1149    0.1871 H   0  0  0  0  0  0  0  0  0  0  0  0
    7.0875    3.7151    0.3201 H   0  0  0  0  0  0  0  0  0  0  0  0
    7.5093    2.4017   -0.8704 H   0  0  0  0  0  0  0  0  0  0  0  0
    5.8736    0.9395    2.4008 H   0  0  0  0  0  0  0  0  0  0  0  0
    5.3853    1.6652   -0.5231 H   0  0  0  0  0  0  0  0  0  0  0  0
    2.9316    1.3262    0.1078 H   0  0  0  0  0  0  0  0  0  0  0  0
    3.4389    1.3240    1.8131 H   0  0  0  0  0  0  0  0  0  0  0  0
    4.2225    3.3238   -1.5173 H   0  0  0  0  0  0  0  0  0  0  0  0
    3.5678    4.9232   -1.1013 H   0  0  0  0  0  0  0  0  0  0  0  0
    1.0554    4.9110   -0.1697 H   0  0  0  0  0  0  0  0  0  0  0  0
   -1.5077    2.2214   -2.3372 H   0  0  0  0  0  0  0  0  0  0  0  0
    2.7622    1.7751   -2.5613 H   0  0  0  0  0  0  0  0  0  0  0  0
    0.1090    0.9157   -4.3931 H   0  0  0  0  0  0  0  0  0  0  0  0
    1.4224    0.0836   -3.4960 H   0  0  0  0  0  0  0  0  0  0  0  0
   -0.8201   -0.6980   -0.2823 H   0  0  0  0  0  0  0  0  0  0  0  0
    0.7045   -0.0122   -0.7794 H   0  0  0  0  0  0  0  0  0  0  0  0
    0.6748   -2.3849    0.2438 H   0  0  0  0  0  0  0  0  0  0  0  0
    2.3812   -1.3380   -1.8877 H   0  0  0  0  0  0  0  0  0  0  0  0
    1.7447   -4.5632   -0.0217 H   0  0  0  0  0  0  0  0  0  0  0  0
    3.4204   -5.9339   -1.1646 H   0  0  0  0  0  0  0  0  0  0  0  0
    3.4099   -6.2238    0.6131 H   0  0  0  0  0  0  0  0  0  0  0  0
    4.7247   -5.2505   -0.1267 H   0  0  0  0  0  0  0  0  0  0  0  0
    2.1892   -3.6810    2.0394 H   0  0  0  0  0  0  0  0  0  0  0  0
    5.5986   -1.9466    2.5955 H   0  0  0  0  0  0  0  0  0  0  0  0
    7.1264   -2.0023    0.6775 H   0  0  0  0  0  0  0  0  0  0  0  0
    6.9097   -3.6605    1.3318 H   0  0  0  0  0  0  0  0  0  0  0  0
    6.0685   -3.1748   -0.1912 H   0  0  0  0  0  0  0  0  0  0  0  0
    3.5610   -0.9780    1.4876 H   0  0  0  0  0  0  0  0  0  0  0  0
   -1.4507   -4.8986   -1.5514 H   0  0  0  0  0  0  0  0  0  0  0  0
   -2.0583   -2.5095    0.1250 H   0  0  0  0  0  0  0  0  0  0  0  0
   -1.3178   -5.2091    1.4338 H   0  0  0  0  0  0  0  0  0  0  0  0
   -2.1066   -3.8178    2.2910 H   0  0  0  0  0  0  0  0  0  0  0  0
   -0.4336   -3.6464    1.6581 H   0  0  0  0  0  0  0  0  0  0  0  0
   -5.1877   -3.8454   -1.1523 H   0  0  0  0  0  0  0  0  0  0  0  0
   -3.9405   -1.3332   -0.2983 H   0  0  0  0  0  0  0  0  0  0  0  0
   -4.0201   -2.3057    1.9855 H   0  0  0  0  0  0  0  0  0  0  0  0
   -5.7529   -2.7668    1.7735 H   0  0  0  0  0  0  0  0  0  0  0  0
   -5.2674   -1.0187    1.8582 H   0  0  0  0  0  0  0  0  0  0  0  0
   -6.7278   -0.0645   -2.0788 H   0  0  0  0  0  0  0  0  0  0  0  0
   -5.1120    0.8350    0.3187 H   0  0  0  0  0  0  0  0  0  0  0  0
   -7.4876    0.2956    0.9874 H   0  0  0  0  0  0  0  0  0  0  0  0
   -8.1023    1.4231   -0.2764 H   0  0  0  0  0  0  0  0  0  0  0  0
   -7.1661    2.0415    1.1323 H   0  0  0  0  0  0  0  0  0  0  0  0
   -4.8519    4.2393   -1.2518 H   0  0  0  0  0  0  0  0  0  0  0  0
   -5.0202    2.7999    1.4311 H   0  0  0  0  0  0  0  0  0  0  0  0
   -5.5122    6.3070   -0.0399 H   0  0  0  0  0  0  0  0  0  0  0  0
   -6.9495    6.6018    0.9904 H   0  0  0  0  0  0  0  0  0  0  0  0
   -3.5265    4.5089    2.2792 H   0  0  0  0  0  0  0  0  0  0  0  0
   -3.4848    5.3622    0.7152 H   0  0  0  0  0  0  0  0  0  0  0  0
   -1.2980    5.3121   -0.2030 H   0  0  0  0  0  0  0  0  0  0  0  0
   -2.3266    4.4788   -1.4117 H   0  0  0  0  0  0  0  0  0  0  0  0
  1  2  1  0
  2  3  2  0
  2  4  1  0
  4  5  1  0
  5  6  1  0
  6  7  1  0
  7  8  1  0
  8  9  1  0
  9 10  2  0
 10 11  1  0
 11 12  2  0
 12 13  1  0
 13 14  2  0
 13 15  1  0
 15 16  1  0
 16 17  1  0
 17 18  1  0
 18 19  1  0
 19 20  1  0
 20 21  2  0
 20 22  1  0
 22 23  1  0
 22 24  1  0
 24 25  1  0
 25 26  2  0
 25 27  1  0
 27 28  1  0
 27 29  1  0
 29 30  1  0
 30 31  2  0
 18 32  1  0
 32 33  2  0
 32 34  1  0
 34 35  1  0
 35 36  1  0
 35 37  1  0
 37 38  2  0
 37 39  1  0
 39 40  1  0
 40 41  1  0
 40 42  1  0
 42 43  2  0
 42 44  1  0
 44 45  1  0
 45 46  1  0
 45 47  1  0
 47 48  2  0
 47 49  1  0
 49 50  1  0
 50 51  1  0
 51 52  1  0
 51 53  2  0
 50 54  1  0
 54 55  1  0
 55 56  1  0
 30  5  1  0
 14  9  1  0
 56 11  1  0
  1 57  1  0
  1 58  1  0
  1 59  1  0
  4 60  1  0
  5 61  1  6
  6 62  1  0
  6 63  1  0
  8 64  1  0
  8 65  1  0
 10 66  1  0
 12 67  1  0
 14 68  1  0
 15 69  1  0
 15 70  1  0
 17 71  1  0
 17 72  1  0
 18 73  1  1
 19 74  1  0
 22 75  1  1
 23 76  1  0
 23 77  1  0
 23 78  1  0
 24 79  1  0
 27 80  1  1
 28 81  1  0
 28 82  1  0
 28 83  1  0
 29 84  1  0
 34 85  1  0
 35 86  1  1
 36 87  1  0
 36 88  1  0
 36 89  1  0
 39 90  1  0
 40 91  1  1
 41 92  1  0
 41 93  1  0
 41 94  1  0
 44 95  1  0
 45 96  1  1
 46 97  1  0
 46 98  1  0
 46 99  1  0
 49100  1  0
 50101  1  1
 52102  1  0
 52103  1  0
 54104  1  0
 54105  1  0
 56106  1  0
 56107  1  0
M  END
